%nprocshared=8
%mem=1600MB
#p opt hf/6-31G

 Mol07.out

0  1
O          15.50260        -8.14410        -1.52990
C          16.68450        -8.22560        -1.91050
C          17.77680        -8.51690        -0.87090
N          18.51320        -9.73170        -1.11010
N          18.02800       -10.84850        -1.72510
N          18.85590       -11.79820        -1.70070
C          20.03410       -11.38150        -1.00980
C          19.80330       -10.00700        -0.61180
C          20.76950        -9.28250         0.09300
C          21.95390        -9.94230         0.39130
C          22.18430       -11.27690         0.00870
C          21.23890       -12.01350        -0.69230
N          17.03250        -8.06420        -3.24100
C          15.99900        -7.85410        -4.24010
C          15.65510        -6.43200        -4.51700
C          14.43400        -5.85190        -4.23610
S          14.37880        -4.26250        -4.73800
C          15.94360        -4.27420        -5.32960
C          16.54030        -5.50220        -5.15690
C          18.38440        -7.98400        -3.67140
C          19.20730        -6.89910        -3.30300
C          20.51790        -6.82340        -3.76230
C          21.04510        -7.81800        -4.59630
C          20.22920        -8.89730        -4.96190
C          18.91650        -8.98420        -4.51250
C          22.41980        -7.73280        -5.08450
C          22.94550        -6.50850        -5.52120
C          24.25220        -6.43520        -5.99940
C          25.04920        -7.57920        -6.04150
C          24.53480        -8.79920        -5.60310
C          23.22700        -8.87880        -5.12930
H          17.25920        -8.58630         0.13180
H          18.50990        -7.66000        -0.85070
H          20.59830        -8.24110         0.39460
H          22.74050        -9.40600         0.94500
H          23.14370       -11.74550         0.27550
H          21.42330       -13.05620        -0.98790
H          16.35210        -8.33190        -5.20090
H          15.07010        -8.39330        -3.88790
H          13.60180        -6.35020        -3.73910
H          16.40540        -3.40340        -5.79080
H          17.55860        -5.76430        -5.45270
H          18.81410        -6.09890        -2.65660
H          21.14850        -5.97110        -3.46520
H          20.63070        -9.68610        -5.61740
H          18.29520        -9.84280        -4.81380
H          22.31800        -5.60510        -5.49430
H          24.65440        -5.47200        -6.34660
H          26.07950        -7.51980        -6.42170
H          25.16180        -9.70270        -5.63040
H          22.82530        -9.84250        -4.78150

