%nprocshared=8
%mem=1600MB
#p opt hf/6-31G

Mol01.out

0  1
O          21.07040        -6.84110        -0.65370
C          21.76820        -7.79140        -0.26010
C          23.20290        -7.56070         0.25050
N          23.60440        -6.18050         0.33650
N          23.03700        -5.27080         1.19720
N          23.31900        -4.08690         0.89110
C          24.09300        -4.07760        -0.31570
C          24.67210        -3.06290        -1.07630
C          25.38430        -3.43660        -2.21150
C          25.53590        -4.78310        -2.57990
C          24.97600        -5.81980        -1.83990
C          24.24990        -5.46480        -0.70280
N          21.27260        -9.09510        -0.25790
C          22.08380       -10.24720         0.07180
C          22.03750       -11.36590        -0.91170
C          21.98980       -12.73910        -0.49550
C          22.02250       -13.59310        -1.57480
S          22.09170       -12.75810        -3.01980
C          22.09440       -11.26120        -2.28720
C          19.88720        -9.31680        -0.50720
C          19.11680       -10.12400         0.35210
C          17.75700       -10.31030         0.13600
C          17.10560        -9.67880        -0.94310
C          17.88590        -8.89090        -1.82320
C          19.24450        -8.71570        -1.60900
N          15.72280        -9.76580        -1.16890
C          14.78770       -10.48680        -0.43850
O          15.09020       -11.26570         0.48220
C          13.35500       -10.22800        -0.80340
C          12.47070       -11.38240        -1.18550
C          12.86200       -10.36840        -2.21810
H          23.29190        -8.00430         1.28490
H          23.92420        -8.07010        -0.45050
H          24.57100        -2.00760        -0.78420
H          25.84480        -2.65700        -2.83840
H          26.12170        -5.02640        -3.48000
H          25.09970        -6.86740        -2.14280
H          23.16680        -9.94020         0.16470
H          21.76100       -10.63870         1.08300
H          21.93100       -13.04430         0.55130
H          22.00390       -14.68040        -1.52400
H          22.12170       -10.32860        -2.84850
H          19.57880       -10.61990         1.21990
H          17.19460       -10.95170         0.83520
H          17.42370        -8.38950        -2.68780
H          19.81420        -8.06390        -2.29070
H          15.37150        -9.18810        -1.90070
H          12.93510        -9.42400        -0.16430
H          12.90990       -12.39560        -1.22690
H          11.43380       -11.39400        -0.80470
H          12.10360        -9.65140        -2.58210
H          13.56800       -10.66080        -3.01580

