%nprocshared=8
%mem=1600MB
#p opt hf/6-31G

 Mol08.out

0  1
O          15.36400        -8.26580         0.98460
C          16.55920        -8.30910         1.32780
C          17.61770        -8.64530         0.26750
N          18.40220        -9.81840         0.55760
N          17.97790       -10.90690         1.26160
N          18.82690       -11.83790         1.24900
C          19.95500       -11.43960         0.46900
C          19.66940       -10.09670         0.00450
C          20.57980        -9.39400        -0.79020
C          21.76170       -10.04550        -1.11640
C          22.04280       -11.35170        -0.67410
C          21.15460       -12.06470         0.12000
N          16.94870        -8.06370         2.63420
C          15.94690        -7.78730         3.64950
C          15.60390        -6.35050         3.83540
C          14.36460        -5.80160         3.57150
S          14.31770        -4.17900         3.95210
C          15.90880        -4.13500         4.46590
C          16.50960        -5.36840         4.35740
C          18.31310        -7.94720         3.01190
C          18.88440        -8.89160         3.89080
C          20.21200        -8.76950         4.28500
C          21.00650        -7.71210         3.82050
C          20.43990        -6.77280         2.94830
C          19.11220        -6.88080         2.54920
C          22.39540        -7.58960         4.24280
C          22.96110        -6.32030         4.51060
N          24.23170        -6.13880         4.91080
C          24.99880        -7.23670         5.06170
C          24.53530        -8.54260         4.82060
C          23.21560        -8.71670         4.40510
H          18.32350        -7.77280         0.15750
H          17.06240        -8.79810        -0.70550
H          20.36950        -8.37490        -1.13890
H          22.50420        -9.52600        -1.74230
H          22.99550       -11.81670        -0.97030
H          21.37840       -13.08480         0.46320
H          15.01070        -8.35310         3.36540
H          16.33280        -8.19490         4.62990
H          13.51450        -6.34260         3.15640
H          16.38350        -3.22960         4.83900
H          17.54410        -5.59930         4.62070
H          18.28250        -9.73600         4.26400
H          20.64140        -9.51370         4.97430
H          21.05200        -5.93860         2.57110
H          18.68760        -6.12060         1.87460
H          22.35350        -5.40300         4.40490
H          26.03610        -7.05570         5.39510
H          25.20150        -9.40430         4.95870
H          22.82190        -9.72370         4.20040

