%nprocshared=8
%mem=1600MB
#p opt hf/6-31G

 Mol15.out

0  1
O          21.12420        -6.59830        -0.16150
C          21.68310        -7.64200         0.21140
C          23.18030        -7.67090         0.57100
N          23.90290        -6.46380         0.26470
N          23.78890        -5.30600         1.00150
N          24.19190        -4.29830         0.37380
C          24.56820        -4.68370        -0.95560
C          25.07310        -3.98260        -2.04910
C          25.33620        -4.70580        -3.20890
C          25.11750        -6.09050        -3.28370
C          24.62470        -6.82050        -2.20610
C          24.34350        -6.11190        -1.03840
N          20.97490        -8.84000         0.35620
C          21.64620       -10.06290         0.73480
C          22.42890       -10.76690        -0.32040
C          23.34830       -11.81540         0.02490
C          23.93160       -12.36210        -1.09530
S          23.38450       -11.63190        -2.49420
C          22.37170       -10.58200        -1.68700
C          19.61420        -8.93260        -0.04420
C          19.14820       -10.07130        -0.73880
C          17.81170       -10.17640        -1.10260
C          16.90560        -9.15270        -0.80030
C          17.36100        -8.02190        -0.11350
C          18.69540        -7.90710         0.26370
C          15.49640        -9.27600        -1.20950
C          15.19970        -9.82840        -2.47750
C          13.86660        -9.95080        -2.86920
C          12.86360        -9.52380        -2.00010
C          13.24810        -8.98110        -0.75950
N          14.52340        -8.85220        -0.35870
H          23.26850        -7.86140         1.68050
H          23.67780        -8.50960         0.00220
H          25.25300        -2.89960        -1.99250
H          25.72450        -4.17960        -4.09420
H          25.34140        -6.61480        -4.22580
H          24.46280        -7.90400        -2.27390
H          22.34000        -9.83460         1.59830
H          20.86400       -10.78340         1.12370
H          23.54000       -12.12560         1.05420
H          24.66010       -13.17180        -1.09730
H          21.74260        -9.85490        -2.20200
H          19.84120       -10.88690        -1.00120
H          17.46570       -11.07890        -1.62970
H          16.65970        -7.20970         0.13670
H          19.03130        -6.99720         0.78800
H          16.01270       -10.14570        -3.14450
H          13.61370       -10.37560        -3.85140
H          11.80310        -9.60330        -2.26890
H          12.48900        -8.62660        -0.03860

