%nprocshared=8
%mem=1600MB
#p opt hf/6-31G

 Mol18.out

0  1
C          12.48150        -8.57310        -1.69890
N          13.75640        -9.23250        -1.56030
C          14.94950        -8.58780        -1.21720
C          15.94800        -9.58050        -1.16870
C          15.24500       -10.80790        -1.49860
N          13.93350       -10.55620        -1.72350
C          17.34320        -9.42930        -0.86360
C          17.82180        -8.28080        -0.21500
C          19.16830        -8.13710         0.09800
C          20.08950        -9.15330        -0.23350
C          19.61210       -10.29940        -0.90700
C          18.26300       -10.43150        -1.20820
N          21.45910        -9.04790         0.13240
C          22.14170       -10.26150         0.52220
C          22.98400       -10.92570        -0.51240
C          24.01930       -11.84970        -0.14180
C          24.63360       -12.38800        -1.24960
S          23.98110       -11.79140        -2.66680
C          22.87750       -10.81720        -1.88450
C          22.15940        -7.84680        -0.01970
O          21.60300        -6.81430        -0.42550
C          23.64880        -7.86710         0.37310
N          24.34940        -6.62500         0.18520
N          24.14540        -5.50750         0.95670
N          24.66200        -4.48050         0.45200
C          25.24510        -4.81400        -0.81310
C          25.94390        -4.07780        -1.76940
C          26.39010        -4.75430        -2.89970
C          26.15620        -6.12760        -3.08160
C          25.46930        -6.89170        -2.14440
C          25.00900        -6.23080        -1.00440
H          12.04290        -8.78830        -2.71000
H          11.77090        -8.93910        -0.90990
H          12.63400        -7.46870        -1.58320
H          15.00460        -7.51330        -1.04760
H          15.65880       -11.81450        -1.56130
H          17.11900        -7.47960         0.06000
H          19.51400        -7.21370         0.59100
H          20.30790       -11.10150        -1.20230
H          17.91220       -11.33420        -1.73140
H          22.79210       -10.03260         1.41890
H          21.36330       -11.00900         0.86480
H          24.26640       -12.08360         0.89580
H          25.44320       -13.11640        -1.23150
H          22.16380       -10.18530        -2.41510
H          23.72050        -8.14130         1.46670
H          24.17290        -8.65150        -0.24710
H          26.13200        -3.00380        -1.62880
H          26.94250        -4.20170        -3.67490
H          26.52780        -6.61280        -3.99770
H          25.29580        -7.96470        -2.29720

