%nprocshared=8
%mem=1600MB
#p opt hf/6-31G

 Mol13.out

0  1
O          20.73910        -6.75290         0.13230
C          21.38490        -7.79220         0.34530
C          22.90440        -7.76910         0.58890
N          23.52480        -6.47780         0.44570
N          23.37050        -5.45890         1.35900
N          23.66840        -4.33910         0.88040
C          24.00040        -4.48620        -0.50730
C          24.39840        -3.58940        -1.49730
C          24.65390        -4.10490        -2.76480
C          24.52790        -5.47460        -3.04620
C          24.13910        -6.39570        -2.07800
C          23.87090        -5.89780        -0.80330
N          20.75120        -9.03640         0.42300
C          21.50520       -10.26850         0.47060
C          22.11980       -10.73460        -0.80450
C          22.73050       -12.03130        -0.89180
C          23.22050       -12.27260        -2.15540
S          22.94490       -10.98380        -3.17970
C          22.18730       -10.06790        -2.01150
C          19.36500        -9.14070         0.10900
C          18.49680        -9.84230         0.96880
C          17.14190        -9.93760         0.68290
C          16.59770        -9.33220        -0.47290
C          17.47310        -8.64260        -1.34050
C          18.82660        -8.54580        -1.04860
N          15.22300        -9.42710        -0.73080
S          14.30460        -8.59050        -1.79330
O          14.97870        -8.37870        -3.00930
O          13.06270        -9.25730        -1.86110
C          14.05100        -7.10480        -1.03390
C          14.39940        -5.78830        -1.69980
C          15.12100        -6.19790        -0.46690
H          23.09960        -8.13740         1.63820
H          23.39720        -8.46200        -0.15470
H          24.50340        -2.51680        -1.28020
H          24.96290        -3.42240        -3.57120
H          24.74130        -5.83050        -4.06630
H          24.04510        -7.46490        -2.30880
H          22.32470       -10.15660         1.24170
H          20.81120       -11.08370         0.83660
H          22.78320       -12.72340        -0.04920
H          23.72480       -13.18390        -2.47350
H          21.78130        -9.07650        -2.21260
H          18.88260       -10.31920         1.88390
H          16.49200       -10.49380         1.37660
H          17.10180        -8.18460        -2.27440
H          19.47910        -7.97280        -1.72830
H          14.76980       -10.10100        -0.15010
H          13.09140        -7.10600        -0.46500
H          14.92050        -5.83110        -2.67700
H          13.65660        -4.97170        -1.65580
H          14.91180        -5.67930         0.48640
H          16.17630        -6.52880        -0.53400

