%nprocshared=8
%mem=1600MB
#p opt hf/6-31G

 Mol16.out

0  1
C          15.62130       -11.35540         1.90650
O          16.00200       -10.82300         0.63700
C          15.00890       -10.28370        -0.15580
N          13.70420       -10.40270         0.20380
C          12.78800        -9.86990        -0.62330
C          13.10850        -9.21010        -1.81990
C          14.45310        -9.08970        -2.17180
C          15.44940        -9.62220        -1.34350
C          16.85640        -9.47740        -1.69300
C          17.33160        -8.26080        -2.20310
C          18.66940        -8.09620        -2.54140
C          19.58380        -9.15850        -2.37150
C          19.10210       -10.38470        -1.86300
C          17.76020       -10.53540        -1.53450
N          20.95190        -9.00610        -2.72360
C          21.64220       -10.15360        -3.26920
C          22.51930       -10.92060        -2.33960
C          23.67480       -11.62560        -2.81960
C          24.30060       -12.31630        -1.80670
S          23.51820       -12.10910        -0.34570
C          22.34140       -11.11630        -0.98450
C          21.64600        -7.82910        -2.42270
O          21.08100        -6.85220        -1.90560
C          23.13890        -7.79170        -2.79880
N          23.84520        -6.61030        -2.37730
N          23.68420        -5.38040        -2.97300
N          24.10740        -4.44290        -2.25540
C          24.55500        -4.96970        -0.99920
C          25.10810        -4.38730         0.14020
C          25.43830        -5.23100         1.19630
C          25.23690        -6.61900         1.12580
C          24.69620        -7.23130        -0.00070
C          24.34890        -6.40170        -1.06700
H          14.94390       -12.23300         1.77840
H          16.60150       -11.66860         2.34850
H          15.13470       -10.57160         2.53420
H          11.73850        -9.98410        -0.29580
H          12.31700        -8.79910        -2.45850
H          14.74030        -8.57750        -3.10320
H          16.63920        -7.41360        -2.32800
H          19.01500        -7.11960        -2.91830
H          19.78580       -11.23560        -1.71320
H          17.40520       -11.49470        -1.12500
H          20.86810       -10.86840        -3.68290
H          22.26800        -9.80470        -4.14470
H          23.99600       -11.60410        -3.86310
H          25.19400       -12.92930        -1.91820
H          21.53900       -10.68590        -0.38340
H          23.65850        -8.67810        -2.33110
H          23.21500        -7.86150        -3.92340
H          25.27360        -3.30200         0.19610
H          25.86780        -4.80120         2.11410
H          25.51350        -7.24170         1.99120
H          24.54530        -8.31770        -0.04450

