%nprocshared=8
%mem=1600MB
#p opt hf/6-31G

 Mol19.out

0  1
O          20.99470        -8.36910        -2.84260
C          21.35760        -9.02210        -1.85130
C          22.64850        -8.65920        -1.09110
N          22.99670        -7.26230        -1.17010
N          22.11430        -6.25340        -0.86580
N          22.49980        -5.13860        -1.29360
C          23.72140        -5.30620        -2.02280
C          24.57070        -4.41780        -2.68150
C          25.71830        -4.94310        -3.26500
C          26.02210        -6.31300        -3.20100
C          25.19410        -7.22550        -2.55590
C          24.03410        -6.71950        -1.96610
N          20.59080       -10.07910        -1.33230
C          21.23990       -11.24580        -0.77930
C          21.72330       -12.26650        -1.75250
C          21.93990       -13.62930        -1.35690
C          22.40710       -14.38920        -2.40610
S          22.56130       -13.48410        -3.80080
C          22.03320       -12.07570        -3.08440
C          19.21350       -10.18040        -1.66880
C          18.60750       -11.42580        -1.93240
C          17.23690       -11.50950        -2.14890
C          16.43020       -10.36470        -2.11620
C          17.03690        -9.12050        -1.89180
C          18.40550        -9.02130        -1.67630
C          15.00870       -10.46360        -2.31260
C          14.13460       -11.46680        -1.85140
N          12.86330       -11.11180        -2.30000
N          12.86690        -9.97800        -3.00340
C          14.15140        -9.54280        -3.03710
H          22.52940        -8.90610         0.00440
H          23.49580        -9.26120        -1.52410
H          24.33540        -3.34510        -2.73450
H          26.40980        -4.27010        -3.79390
H          26.94600        -6.67560        -3.67830
H          25.44200        -8.29350        -2.51630
H          22.12660       -10.91050        -0.16290
H          20.50980       -11.74160        -0.07200
H          21.74240       -13.99520        -0.34740
H          22.64740       -15.45010        -2.35870
H          21.93200       -11.13680        -3.63010
H          19.21690       -12.34220        -1.97850
H          16.78080       -12.48750        -2.36350
H          16.42010        -8.20850        -1.87630
H          18.85930        -8.02850        -1.52650
H          14.32130       -12.35770        -1.25420
H          14.45030        -8.63390        -3.55990
H          12.01420       -11.60210        -2.14470

