%nprocshared=8
%mem=1600MB
#p opt hf/6-31G

 Mol10.out

0  1
N          13.75790       -10.11920        -0.50990
C          14.45280        -8.93620        -0.42370
O          13.89830        -7.92770         0.06060
C          15.85170        -8.90100        -0.93090
C          16.30430        -7.73430        -1.55570
C          17.60280        -7.64770        -2.04580
C          18.49540        -8.73120        -1.89210
C          18.03590        -9.89580        -1.23420
C          16.72780        -9.97700        -0.77080
N          19.81770        -8.66990        -2.40590
C          20.42900        -9.91290        -2.82310
C          21.23450       -10.64990        -1.80890
C          21.87990       -11.88760        -2.14670
C          22.55100       -12.41570        -1.06700
S          22.39890       -11.44950         0.28600
C          21.45970       -10.31210        -0.48930
C          20.57980        -7.49660        -2.30690
O          20.08880        -6.43280        -1.89960
C          22.04820        -7.58510        -2.76360
N          22.83330        -6.40400        -2.52600
N          22.71260        -5.24590        -3.25750
N          23.26250        -4.26870        -2.69530
C          23.77870        -4.67940        -1.42260
C          24.47290        -4.01610        -0.41170
C          24.83380        -4.75600         0.71000
C          24.52260        -6.12020         0.82960
C          23.83780        -6.81230        -0.16420
C          23.46300        -6.08730        -1.29570
H          14.16060       -10.92160        -0.91630
H          12.82180       -10.15710        -0.19320
H          15.62220        -6.87250        -1.64820
H          17.93340        -6.71500        -2.53250
H          18.71460       -10.74780        -1.06740
H          16.40360       -10.89270        -0.25270
H          19.60670       -10.60330        -3.18170
H          21.08940        -9.70480        -3.71750
H          21.82940       -12.33430        -3.14160
H          23.11700       -13.34630        -1.06990
H          21.07060        -9.42640         0.01390
H          22.54820        -8.43500        -2.21320
H          22.05480        -7.79310        -3.87360
H          24.72130        -2.94900        -0.50280
H          25.37660        -4.26070         1.52950
H          24.82900        -6.65740         1.74090
H          23.60010        -7.87880        -0.05930

