%nprocshared=8
%mem=1600MB
#p opt hf/6-31G

 Mol14.out

0  1
O          21.16820        -7.00300        -1.88830
C          21.51700        -7.73420        -0.95140
C          22.75630        -7.37460        -0.09910
N          23.08520        -5.97430        -0.09300
N          22.21510        -4.98280         0.28880
N          22.62730        -3.84160        -0.02920
C          23.86060        -3.96260        -0.74790
C          24.74390        -3.03410        -1.29860
C          25.89240        -3.52590        -1.91060
C          26.16230        -4.90350        -1.98070
C          25.30310        -5.85400        -1.44190
C          24.14660        -5.38100        -0.81910
N          20.82510        -8.90410        -0.59290
C          21.57690       -10.02860        -0.06830
C          21.53930       -11.26970        -0.89060
C          21.49880       -12.57250        -0.28890
C          21.54190       -13.56650        -1.24160
S          21.61110       -12.93630        -2.78610
C          21.59970       -11.35310        -2.26780
C          19.42670        -9.05320        -0.76140
C          18.75000       -10.11320        -0.10720
C          17.37030       -10.24390        -0.19670
C          16.60560        -9.33900        -0.94230
C          17.26740        -8.30040        -1.60620
C          18.64910        -8.15680        -1.52940
C          15.15620        -9.48340        -1.02810
C          14.56770       -10.74980        -1.17730
C          13.16830       -10.83860        -1.25310
N          12.34650        -9.77480        -1.18510
C          12.92130        -8.56390        -1.03910
C          14.31080        -8.36700        -0.96160
H          22.57360        -7.68420         0.97210
H          23.64430        -7.93380        -0.51170
H          24.53480        -1.95580        -1.24530
H          26.61250        -2.81940        -2.35110
H          27.08490        -5.24080        -2.47940
H          25.52490        -6.92770        -1.50780
H          22.66610        -9.74420         0.03160
H          21.20240       -10.25960         0.97330
H          21.43670       -12.72910         0.78930
H          21.53020       -14.63570        -1.03930
H          21.62060       -10.50580        -2.95300
H          19.30110       -10.86880         0.47380
H          16.87250       -11.06820         0.33770
H          16.68900        -7.58630        -2.21340
H          19.10990        -7.32250        -2.08300
H          15.18930       -11.65210        -1.24280
H          12.67360       -11.81930        -1.37670
H          12.22560        -7.70810        -0.97980
H          14.72360        -7.35630        -0.84260

