%nprocshared=8
%mem=1600MB
#p opt hf/6-31G

 Mol17.out

0  1
S          13.90900        -8.00900        -1.91800
C          14.97490        -6.72670        -1.93310
C          15.00540        -9.06920        -1.24800
C          16.20360        -7.07190        -1.42670
C          16.23470        -8.46330        -1.01300
N          17.38490        -9.06090        -0.46380
C          20.79310        -6.54340        -0.11470
C          20.67230        -7.43260        -1.19160
C          19.78010        -6.51990         0.85720
C          19.56410        -8.26600        -1.30970
C          18.66660        -7.34450         0.75040
C          18.54220        -8.22970        -0.34020
C          17.41660       -10.38430        -0.02620
C          18.73910       -10.94150         0.54330
O          16.40940       -11.11250        -0.04990
C          18.71190       -13.47540         0.41400
N          19.12450       -12.19970        -0.04060
C          19.07650       -14.36160        -0.67250
N          19.61290       -12.33230        -1.31620
N          19.63470       -13.52980        -1.69490
C          18.13680       -13.96810         1.58690
C          17.92630       -15.34040         1.65650
C          18.85900       -15.73590        -0.56700
C          18.27930       -16.20520         0.60600
C          24.14110        -3.93320         0.22880
N          24.31880        -5.17680        -0.31850
C          22.90750        -3.50830         0.65840
C          23.24950        -6.08550        -0.46950
C          21.79050        -4.38210         0.53570
C          21.92860        -5.63630         0.00120
O          23.51790        -7.18730        -0.98690
H          14.70870        -5.73900        -2.30710
H          14.75300       -10.11040        -1.03610
H          17.06380        -6.40450        -1.34080
H          21.47090        -7.48460        -1.95130
H          19.86510        -5.84540         1.72320
H          19.49570        -8.95570        -2.16720
H          17.87860        -7.29410         1.51850
H          19.59460       -10.21880         0.40900
H          18.56590       -11.11090         1.64480
H          17.85090       -13.30140         2.41100
H          17.46270       -15.76410         2.56120
H          19.13420       -16.41530        -1.38610
H          18.08580       -17.28290         0.71720
H          25.04200        -3.29670         0.30250
H          25.22150        -5.46340        -0.63020
H          22.77780        -2.50870         1.09040
H          20.80640        -4.02060         0.87660

