%nprocshared=8
%mem=1600MB
#p opt hf/6-31G

 Mol27.out

0  1
O          21.20280        -7.15810         0.23360
C          21.83620        -8.17820         0.54790
C          23.32890        -8.11800         0.91740
N          23.95260        -6.83600         0.71280
N          23.78420        -5.76480         1.56020
N          24.09850        -4.67620         1.02290
C          24.45550        -4.90640        -0.34700
C          24.87030        -4.07070        -1.38250
C          25.13620        -4.66050        -2.61470
C          25.00680        -6.04390        -2.81720
C          24.60540        -6.90650        -1.80170
C          24.32480        -6.33230        -0.56180
N          21.19240        -9.41930         0.65320
C          21.92420       -10.65570         0.79200
C          22.34330       -11.31010        -0.49510
C          22.01190       -12.61820        -0.83770
S          22.65770       -13.01540        -2.32550
C          23.34480       -11.45950        -2.46920
N          23.11520       -10.64470        -1.44550
C          19.82300        -9.53850         0.27270
C          18.92990       -10.26600         1.08840
C          17.59720       -10.40480         0.71980
C          17.10940        -9.81920        -0.45650
C          17.99070        -9.07980        -1.25650
C          19.32840        -8.93970        -0.90410
C          15.71150        -9.97270        -0.83550
C          15.01760       -11.17170        -0.61290
C          13.68090       -11.26690        -0.99810
C          13.07140       -10.14960        -1.59610
N          13.71520        -8.98700        -1.81950
C          15.00410        -8.90880        -1.44520
H          23.42660        -8.38910         2.00900
H          23.90200        -8.85700         0.28760
H          24.97840        -2.98790        -1.22750
H          25.45250        -4.02660        -3.45700
H          25.22660        -6.45820        -3.81340
H          24.50370        -7.98750        -1.97000
H          22.84360       -10.47810         1.42160
H          21.26870       -11.39040         1.34640
H          21.40920       -13.29290        -0.23310
H          23.93350       -11.13870        -3.33360
H          19.27430       -10.72130         2.02960
H          16.91330       -10.97040         1.37120
H          17.62580        -8.60690        -2.18180
H          19.99600        -8.33310        -1.53770
H          15.52580       -12.02780        -0.14510
H          13.11270       -12.19290        -0.84240
H          12.01390       -10.18110        -1.91280
H          15.50220        -7.94000        -1.63380

