%nprocshared=8
%mem=1600MB
#p opt hf/6-31G

 Mol.out

0  1
O          21.14570        -6.88160         0.05040
C          21.75840        -7.90780         0.38460
C          23.25390        -7.87070         0.75340
N          23.90430        -6.60420         0.54860
N          23.73520        -5.51860         1.37590
N          24.14020        -4.45320         0.85220
C          24.58410        -4.71800        -0.48480
C          25.12520        -3.91770        -1.49000
C          25.45990        -4.53570        -2.69070
C          25.27280        -5.91280        -2.89280
C          24.74450        -6.74010        -1.90660
C          24.39520        -6.13850        -0.69750
N          21.11510        -9.14680         0.48770
C          21.86410       -10.35040         0.77400
C          22.64690       -10.93500        -0.38150
C          23.75880       -11.90080        -0.06490
C          22.49500       -12.40080        -0.69600
C          19.75820        -9.29750         0.09340
C          19.34580       -10.42680        -0.64800
C          18.01260       -10.58650        -1.00630
C          17.05180        -9.63370        -0.64410
C          17.45850        -8.51250         0.09130
C          18.78800        -8.33930         0.45850
C          15.65590        -9.80000        -1.02600
C          15.28990       -10.23580        -2.30790
C          13.93710       -10.37070        -2.61910
C          12.98450       -10.06540        -1.63050
N          13.31120        -9.64510        -0.39230
C          14.61850        -9.51710        -0.10580
H          23.34760        -8.13780         1.84710
H          23.80540        -8.63270         0.13040
H          25.27980        -2.84040        -1.33460
H          25.88330        -3.93060        -3.50690
H          25.55210        -6.35050        -3.86400
H          24.60620        -7.81580        -2.07520
H          22.58170       -10.12980         1.61830
H          21.13740       -11.12660         1.15670
H          22.79030       -10.24210        -1.23440
H          24.68380       -11.86090        -0.66720
H          23.96630       -12.15040         0.99120
H          21.79720       -13.00820        -0.09150
H          22.51040       -12.72300        -1.75230
H          20.07950       -11.19170        -0.95180
H          17.70860       -11.47550        -1.58030
H          16.71680        -7.74970         0.37610
H          19.08200        -7.43500         1.01640
H          16.06270       -10.45830        -3.05850
H          13.61650       -10.70540        -3.61400
H          11.90340       -10.16080        -1.83530
H          14.85840        -9.17480         0.91750

