%nprocshared=8
%mem=1600MB
#p opt hf/6-31G

 Mol26.out

0  1
O          21.32090        -6.84650        -0.72760
C          21.89600        -7.86190        -0.30390
C          23.35890        -7.80580         0.17620
N          23.90870        -6.48130         0.29770
N          23.47430        -5.56680         1.23170
N          23.81460        -4.39500         0.94550
C          24.48740        -4.38900        -0.32140
C          25.06890        -3.38350        -1.09190
C          25.66230        -3.75870        -2.29360
C          25.68920        -5.09590        -2.72050
C          25.12450        -6.12340        -1.97060
C          24.51690        -5.76640        -0.76740
N          21.23980        -9.09550        -0.25710
C          21.90260       -10.30610         0.17600
C          21.62850       -11.53740        -0.69690
C          22.27520       -12.77860        -0.07690
C          23.23420       -13.31730        -1.13390
O          23.30840       -12.37240        -2.20460
C          22.24650       -11.42070        -2.09330
C          19.83600        -9.16230        -0.47940
C          19.00510        -9.90410         0.38920
C          17.63680        -9.98170         0.16070
C          17.04960        -9.32100        -0.92670
C          17.86960        -8.57430        -1.78270
C          19.24170        -8.49470        -1.57160
C          15.61400        -9.40470        -1.15650
C          14.90380       -10.59550        -0.94240
C          13.52920       -10.61910        -1.17560
C          12.90160        -9.44140        -1.61950
N          13.56160        -8.28580        -1.83240
C          14.88620        -8.27600        -1.60350
H          23.42770        -8.29500         1.19150
H          23.99890        -8.36600        -0.56460
H          25.05640        -2.33610        -0.75810
H          26.12410        -2.98830        -2.93000
H          26.17130        -5.33900        -3.68040
H          25.15590        -7.16540        -2.31410
H          23.01800       -10.15050         0.18700
H          21.57960       -10.54440         1.23230
H          20.51900       -11.68550        -0.78720
H          22.82640       -12.52950         0.86380
H          21.49970       -13.54140         0.17850
H          24.27880       -13.43490        -0.74870
H          22.87910       -14.29050        -1.56070
H          21.49500       -11.65260        -2.89160
H          22.70640       -10.41940        -2.28980
H          19.42720       -10.42470         1.26220
H          17.00580       -10.55750         0.85540
H          17.42700        -8.04530        -2.64160
H          19.85810        -7.88300        -2.25050
H          15.42860       -11.49990        -0.60100
H          12.94490       -11.53500        -1.01860
H          11.81500        -9.41550        -1.81520
H          15.39980        -7.31250        -1.77740

