%nprocshared=8
%mem=1600MB
#p opt hf/6-31G

 Mol21.out

0  1
O          20.73240        -7.68440        -1.50670
C          21.25600        -8.72200        -1.07150
C          22.72110        -8.75150        -0.59690
N          23.46200        -7.53740        -0.81900
N          23.28390        -6.39280        -0.07780
N          23.77560        -5.38200        -0.63490
C          24.30170        -5.75290        -1.91550
C          24.94770        -5.04350        -2.92700
C          25.34210        -5.75300        -4.05700
C          25.11000        -7.13210        -4.18360
C          24.47350        -7.86930        -3.19000
C          24.06410        -7.17540        -2.05120
N          20.53590        -9.91520        -0.95440
C          21.18290       -11.13610        -0.52940
C          22.08800       -11.79790        -1.51170
C          23.15360       -12.65750        -1.07740
C          23.82910       -13.20200        -2.14590
S          23.19450       -12.68720        -3.60260
C          22.02140       -11.74130        -2.88940
C          19.18500       -10.00230        -1.38840
C          18.73030       -11.13650        -2.09590
C          17.39760       -11.24430        -2.47180
C          16.47710       -10.23230        -2.16430
C          16.93030        -9.09500        -1.48110
C          18.26120        -8.97670        -1.09530
C          15.08710       -10.37510        -2.54780
C          14.44350       -11.57630        -2.93130
N          13.12030       -11.24390        -3.20450
C          12.99400        -9.86620        -2.98270
N          14.15930        -9.31890        -2.58640
H          22.72170        -8.96280         0.51250
H          23.26490        -9.57920        -1.13840
H          25.13420        -3.96450        -2.83120
H          25.84840        -5.22080        -4.87650
H          25.43880        -7.64560        -5.10050
H          24.29880        -8.94710        -3.30110
H          21.77420       -10.91530         0.40930
H          20.37890       -11.88080        -0.24510
H          23.37870       -12.84450        -0.02560
H          24.67380       -13.88610        -2.07760
H          21.30030       -11.15880        -3.46460
H          19.42860       -11.94720        -2.35940
H          17.06730       -12.13570        -3.02620
H          16.22850        -8.28000        -1.24090
H          18.59360        -8.06290        -0.57600
H          14.82240       -12.59260        -3.01350
H          12.05170        -9.32670        -3.12280
H          12.41370       -11.86230        -3.49950

