%nprocshared=8
%mem=1600MB
#p opt hf/6-31G

 Mol29.out

0  1
F          24.20840       -13.91450        -3.09910
C          23.55570       -13.10910        -2.23140
C          23.34970       -11.75850        -2.56980
C          22.68610       -10.90900        -1.69190
C          22.21670       -11.38100        -0.46320
C          22.41020       -12.72520        -0.12520
C          23.07430       -13.59340        -0.99430
Cl         23.28130       -15.21360        -0.54020
C          21.53110       -10.50540         0.55260
N          20.89630        -9.29950         0.07610
C          21.63170        -8.13040        -0.15300
O          21.11250        -7.13010        -0.67220
C          23.10260        -8.12390         0.30830
N          23.84650        -6.94430        -0.04650
N          23.66990        -5.72750         0.57690
N          24.10850        -4.77300        -0.10590
C          24.58170        -5.26600        -1.36790
C          25.15460        -4.65340        -2.48040
C          25.50980        -5.46970        -3.55090
C          25.31240        -6.85890        -3.51950
C          24.74710        -7.50060        -2.42070
C          24.37590        -6.69920        -1.34210
C          19.53030        -9.39410        -0.30850
C          19.02170       -10.59480        -0.85110
C          17.67430       -10.70930        -1.16850
C          16.79240        -9.63780        -0.97280
C          17.29970        -8.43840        -0.45580
C          18.64390        -8.31150        -0.12350
C          15.37970        -9.77530        -1.29900
C          14.95330       -10.52210        -2.40800
C          13.58820       -10.63910        -2.66630
C          12.68210        -9.99830        -1.80240
N          13.06620        -9.27030        -0.73540
C          14.38530        -9.16580        -0.49710
H          23.71900       -11.38720        -3.53780
H          22.52880        -9.85910        -1.98920
H          22.03410       -13.10770         0.83820
H          20.73960       -11.12550         1.07270
H          22.29570       -10.22960         1.33880
H          23.11240        -8.21790         1.43390
H          23.64010        -9.00360        -0.15140
H          25.31580        -3.56620        -2.50830
H          25.95610        -5.01480        -4.44850
H          25.61220        -7.45940        -4.39270
H          24.59900        -8.58850        -2.40760
H          19.68780       -11.45340        -1.03240
H          17.29630       -11.65990        -1.57530
H          16.62840        -7.57650        -0.31430
H          19.01330        -7.34870         0.26620
H          15.68990       -11.00260        -3.06900
H          13.22390       -11.21710        -3.52540
H          11.59250       -10.06850        -1.96900
H          14.66770        -8.56660         0.38790

