%nprocshared=8
%mem=1600MB
#p opt hf/6-31G

 Mol24.out

0  1
O          21.48220        -7.13470        -1.41850
C          22.01870        -8.01940        -0.72850
C          23.53780        -7.97920        -0.47280
N          24.04920        -6.66240        -0.19270
N          23.81760        -5.98980         0.98230
N          24.11170        -4.77200         0.89920
C          24.53410        -4.47460        -0.43650
C          24.96730        -3.30860        -1.06800
C          25.31140        -3.39750        -2.41240
C          25.23580        -4.60990        -3.11870
C          24.81670        -5.79130        -2.51690
C          24.46140        -5.72230        -1.16890
N          21.27020        -9.06360        -0.19990
C          21.83250       -10.16880         0.54120
C          22.67960       -11.13790        -0.26850
C          23.04630       -12.42040         0.51990
C          22.29780       -13.27690        -0.52190
C          21.91720       -12.00190        -1.30160
C          19.86000        -9.09880        -0.42260
C          19.32920        -9.51650        -1.65870
C          17.95230        -9.54990        -1.85490
C          17.07220        -9.16940        -0.83340
C          17.60100        -8.75520         0.39730
C          18.97490        -8.71800         0.60680
C          15.63070        -9.19360        -1.04460
C          15.00750       -10.22110        -1.76780
C          13.62240       -10.19610        -1.92920
C          12.89670        -9.13520        -1.35890
N          13.47260        -8.13360        -0.66510
C          14.80830        -8.16900        -0.51750
H          23.83630        -8.64780         0.38350
H          24.03220        -8.34520        -1.41860
H          25.03000        -2.35840        -0.51890
H          25.64970        -2.49430        -2.94260
H          25.51300        -4.62260        -4.18450
H          24.75610        -6.73140        -3.08000
H          22.45980        -9.76620         1.38960
H          20.97740       -10.74390         1.00400
H          23.56770       -10.62710        -0.70760
H          24.13780       -12.61580         0.57180
H          22.61080       -12.46480         1.54070
H          22.95130       -13.97520        -1.08570
H          21.42860       -13.83240        -0.11130
H          20.82580       -11.79700        -1.34180
H          22.34250       -11.95270        -2.32610
H          20.00090        -9.80370        -2.48260
H          17.55180        -9.86630        -2.83020
H          16.92080        -8.45470         1.20950
H          19.36490        -8.37980         1.57960
H          15.60520       -11.03930        -2.19560
H          13.10380       -10.98610        -2.48760
H          11.79810        -9.07900        -1.46010
H          15.25410        -7.32850         0.04570

