%nprocshared=8
%mem=1600MB
#p opt hf/6-31G

 Mol20.out

0  1
C          12.81480       -11.67910        -2.09170
N          13.85780       -10.74680        -1.82930
C          13.76690        -9.34480        -1.85080
N          14.94510        -8.76650        -1.55320
C          15.84870        -9.82130        -1.32990
C          15.17820       -11.05540        -1.50120
C          17.24150        -9.64330        -0.97130
C          17.71920        -8.41690        -0.48770
C          19.05010        -8.26440        -0.11490
C          19.95410        -9.34290        -0.22640
C          19.47690       -10.56750        -0.74320
C          18.14190       -10.71010        -1.10030
N          21.30250        -9.21260         0.20400
C          21.94930       -10.38020         0.76040
C          22.88240       -11.11750        -0.13910
C          22.74870       -11.22420        -1.56260
C          23.73750       -12.01610        -2.10310
S          24.77000       -12.60180        -0.92890
C          23.97160       -11.83800         0.31680
C          22.03360        -8.04580        -0.04750
O          21.53910        -7.08050        -0.65010
C          23.47560        -8.01000         0.49290
N          24.18500        -6.77920         0.26320
N          23.88420        -5.59990         0.90170
N          24.41360        -4.60810         0.34450
C          25.10950        -5.03860        -0.83170
C          25.86740        -4.37140        -1.79330
C          26.42500        -5.13480        -2.81360
C          26.24150        -6.52580        -2.88260
C          25.49710        -7.22210        -1.93590
C          24.92760        -6.47420        -0.90470
H          12.99910       -12.20650        -3.06730
H          12.76880       -12.44500        -1.27110
H          11.83180       -11.14060        -2.14740
H          12.83680        -8.81720        -2.08500
H          15.52990       -12.08030        -1.40810
H          17.03650        -7.55650        -0.39780
H          19.39750        -7.28400         0.25080
H          20.15720       -11.42410        -0.87370
H          17.79420       -11.67480        -1.49930
H          22.51550       -10.06580         1.68780
H          21.14760       -11.10310         1.10060
H          21.95430       -10.72990        -2.12880
H          23.85080       -12.24670        -3.16150
H          24.28530       -11.91650         1.35690
H          23.44130        -8.18050         1.60910
H          24.06310        -8.83980         0.00290
H          26.01460        -3.28320        -1.74110
H          27.02640        -4.63830        -3.59020
H          26.70030        -7.08190        -3.71500
H          25.36050        -8.30920        -2.00240

