%nprocshared=8
%mem=1600MB
#p opt hf/6-31G

 Mol25.out

0  1
O          21.09790        -6.83960        -0.24760
C          21.69090        -7.84160         0.18260
C          23.13020        -7.75780         0.72410
N          23.74870        -6.46240         0.62160
N          23.36670        -5.37340         1.37080
N          23.79440        -4.29460         0.89520
C          24.48850        -4.55590        -0.33210
C          25.15750        -3.74340        -1.24590
C          25.74720        -4.36330        -2.34340
C          25.68510        -5.75350        -2.53130
C          25.03060        -6.59230        -1.63440
C          24.42730        -5.98930        -0.53080
N          21.06170        -9.08750         0.25670
C          21.80790       -10.30720         0.46830
C          22.54650       -10.86410        -0.75950
C          23.44590       -12.03100        -0.33890
C          23.04160       -13.24850        -1.15940
C          21.71950       -12.91530        -1.83370
C          21.59080       -11.39930        -1.82590
C          19.68520        -9.21270        -0.08480
C          18.80880        -9.90750         0.77710
C          17.46380       -10.03790         0.45420
C          16.94580        -9.48380        -0.72540
C          17.81260        -8.78200        -1.57390
C          19.16140        -8.64390        -1.26390
C          15.53360        -9.63190        -1.05110
C          14.82080       -10.79220        -0.71110
C          13.46710       -10.88080        -1.03300
C          12.86070        -9.79970        -1.69700
N          13.52310        -8.67700        -2.03820
C          14.82690        -8.60240        -1.71810
H          23.10470        -8.04580         1.81620
H          23.78320        -8.48110         0.15710
H          25.21530        -2.65510        -1.09980
H          26.27840        -3.74970        -3.08690
H          26.16980        -6.19220        -3.41750
H          24.99040        -7.67810        -1.79110
H          22.56240       -10.12900         1.28840
H          21.09440       -11.10140         0.83350
H          23.17910       -10.05080        -1.20750
H          24.51980       -11.77500        -0.51910
H          23.33730       -12.24870         0.75410
H          23.82350       -13.47300        -1.92860
H          22.94320       -14.15390        -0.51070
H          21.68450       -13.31620        -2.87640
H          20.87040       -13.37740        -1.26870
H          20.53480       -11.08870        -1.62520
H          21.87380       -10.98500        -2.82690
H          19.17940       -10.34330         1.71780
H          16.79350       -10.57110         1.14620
H          17.42800        -8.33600        -2.50450
H          19.81570        -8.05980        -1.93140
H          15.32650       -11.62600        -0.20200
H          12.88280       -11.77370        -0.77570
H          11.79130        -9.82950        -1.97160
H          15.33710        -7.66400        -2.00330

