%nprocshared=8
%mem=1600MB
#p opt hf/6-31G

 Mol31.out

0  1
F          25.40570       -13.16270        -1.24280
C          24.19360       -12.63100        -0.95870
C          23.63790       -12.80970         0.32100
C          22.38830       -12.25090         0.59230
C          21.69080       -11.53080        -0.38250
C          22.25210       -11.35970        -1.65060
C          23.50380       -11.90380        -1.94530
C          21.50000       -10.64050        -2.74050
N          20.87400        -9.39650        -2.36440
C          21.61920        -8.24190        -2.09520
O          21.11530        -7.27770        -1.50050
C          23.06900        -8.21980        -2.61230
N          23.72700        -6.94420        -2.52670
N          23.45000        -5.88720        -3.36110
N          23.92300        -4.80700        -2.93310
C          24.54340        -5.02880        -1.66060
C          25.21830        -4.19960        -0.76530
C          25.71120        -4.78050         0.39830
C          25.54330        -6.14730         0.67290
C          24.88630        -7.00340        -0.20450
C          24.38180        -6.43970        -1.37610
C          19.48380        -9.43160        -2.05410
C          18.55230        -9.77320        -3.05780
C          17.19210        -9.78740        -2.77360
C          16.71910        -9.46470        -1.49370
C          17.64490        -9.12610        -0.49770
C          19.00930        -9.10770        -0.76740
C          15.28880        -9.45750        -1.21720
C          14.41730       -10.38770        -1.80390
C          13.05330       -10.31290        -1.52450
C          12.59710        -9.30270        -0.65900
N          13.41440        -8.40330        -0.07660
C          14.72690        -8.48640        -0.35400
Cl         21.70290       -12.45420         2.13200
H          24.18720       -13.38360         1.08220
H          20.70120       -11.10180        -0.15090
H          23.95780       -11.78170        -2.93990
H          22.20260       -10.44690        -3.60340
H          20.69590       -11.34280        -3.11420
H          23.67090        -8.95900        -2.00850
H          23.07120        -8.53280        -3.69780
H          25.35240        -3.12890        -0.97520
H          26.24940        -4.15360         1.12560
H          25.94120        -6.55330         1.61530
H          24.76750        -8.07170         0.01480
H          18.89120       -10.01280        -4.07770
H          16.47460       -10.03360        -3.57180
H          17.29360        -8.87010         0.51420
H          19.71560        -8.79940         0.02060
H          14.80760       -11.16840        -2.47320
H          12.34550       -11.02550        -1.96730
H          11.52380        -9.20300        -0.41730
H          15.37070        -7.72910         0.13030

