%nprocshared=8
%mem=1600MB
#p opt hf/6-31G

 Mol35.out

0  1
Cl         24.04830       -15.34510        -2.64910
C          23.47780       -13.79050        -2.26840
C          23.72980       -13.24950        -1.00230
C          23.25190       -11.97680        -0.70120
C          22.53300       -11.24590        -1.64820
C          22.28700       -11.78420        -2.91340
C          22.76110       -13.06650        -3.22280
C          21.54170       -11.05480        -4.00020
N          20.86240        -9.83130        -3.64890
C          21.56710        -8.63460        -3.47340
O          21.00370        -7.59970        -3.08480
C          23.06510        -8.65040        -3.83340
N          23.80280        -7.49010        -3.41180
N          23.72720        -6.26390        -4.02810
N          24.20830        -5.34610        -3.32070
C          24.61780        -5.88310        -2.05620
C          25.21160        -5.32540        -0.92470
C          25.48940        -6.17720         0.13980
C          25.18880        -7.54830         0.09010
C          24.60020        -8.13630        -1.02490
C          24.31640        -7.29890        -2.10420
C          19.49050        -9.92600        -3.28430
C          19.00760       -11.06190        -2.59880
C          17.66140       -11.16660        -2.27310
C          16.75640       -10.14610        -2.60140
C          17.23510        -9.02100        -3.28610
C          18.57870        -8.90570        -3.62580
C          15.35770       -10.25930        -2.20660
C          14.99270       -10.83140        -1.01720
C          13.62220       -10.94450        -0.64510
C          12.65570       -10.46770        -1.49530
N          12.98070        -9.88430        -2.69300
C          14.32000        -9.73880        -3.11310
O          14.50690        -9.18400        -4.21380
H          24.29680       -13.82330        -0.25390
H          23.44020       -11.54300         0.29280
H          22.15540       -10.24670        -1.37810
H          22.56550       -13.49940        -4.21630
H          22.27770       -10.82920        -4.82930
H          20.77180       -11.76520        -4.42860
H          23.55800        -9.54310        -3.34820
H          23.14470        -8.73580        -4.95660
H          25.44810        -4.25270        -0.88000
H          25.95640        -5.76840         1.04890
H          25.42510        -8.17610         0.96330
H          24.36330        -9.20940        -1.05010
H          19.69450       -11.87350        -2.31070
H          17.30540       -12.06920        -1.75320
H          16.53450        -8.21970        -3.57520
H          18.92900        -7.99850        -4.14530
H          15.75640       -11.21080        -0.31900
H          13.34920       -11.40590         0.31140
H          11.57820       -10.52910        -1.25650
H          12.26280        -9.54220        -3.29370

