%nprocshared=8
%mem=1600MB
#p opt hf/6-31G

 Mol37.out

0  1
C          15.70880        -6.56870        -1.92110
C          15.20510        -7.80170        -1.35330
C          15.17750        -5.32740        -1.55880
C          14.16440        -7.77370        -0.42220
C          14.14360        -5.33730        -0.63180
C          13.64890        -6.53150        -0.07490
N          16.72170        -6.99900        -2.80600
N          15.97090        -8.85350        -1.94480
N          16.81450        -8.36150        -2.73880
C          17.58670        -6.13800        -3.56570
C          18.42960        -5.19240        -2.68910
N          19.47020        -5.69930        -1.93120
O          18.13050        -3.98200        -2.65210
C          20.22620        -4.82410        -1.05310
C          23.82090        -4.04700        -1.98610
C          23.66510        -2.92030        -2.79910
C          22.70910        -4.68200        -1.42440
C          22.38370        -2.43290        -3.05390
C          21.43050        -4.18090        -1.68070
C          21.26830        -3.06010        -2.50210
Cl         25.37910        -4.65580        -1.67770
C          21.10920        -8.66420        -3.50490
C          21.05720        -9.60100        -2.46100
C          20.58600        -7.38680        -3.34580
C          20.46270        -9.22350        -1.24700
C          19.98300        -7.01190        -2.12780
C          19.92940        -7.95150        -1.07760
C          21.59610       -10.92070        -2.63340
C          21.86430       -11.59910        -3.84030
C          21.98040       -11.86530        -1.59820
N          22.36960       -12.84700        -3.48300
N          22.44110       -13.01030        -2.15990
H          15.57540        -4.39370        -1.98350
H          13.77530        -8.70430         0.01450
H          13.69630        -4.38040        -0.31980
H          12.83020        -6.47420         0.65850
H          18.26540        -6.75470        -4.22130
H          16.94120        -5.47770        -4.21690
H          19.52930        -4.00890        -0.69660
H          20.54950        -5.43630        -0.16190
H          24.54420        -2.42200        -3.23450
H          22.84110        -5.57110        -0.78830
H          22.25540        -1.54640        -3.69270
H          20.25180        -2.68300        -2.70740
H          21.57880        -8.94000        -4.46130
H          20.65570        -6.66740        -4.17670
H          20.40640        -9.94830        -0.42020
H          19.45890        -7.68580        -0.11780
H          21.72620       -11.29570        -4.87710
H          21.93240       -11.72390        -0.51840
H          22.64850       -13.57710        -4.09480

