%nprocshared=8
%mem=1600MB
#p opt hf/6-31G

 Mol40.out

0  1
Cl         22.82120       -15.66000        -2.73680
C          22.61780       -14.01610        -2.35690
C          23.11890       -13.51610        -1.14980
C          22.94480       -12.16730        -0.84940
C          22.27770       -11.32290        -1.73770
C          21.77420       -11.82390        -2.94060
C          21.94780       -13.17910        -3.25160
C          21.06380       -10.96830        -3.95730
N          20.43200        -9.76900        -3.46820
C          21.11060        -8.55520        -3.31280
O          20.58240        -7.59290        -2.73990
C          22.54090        -8.48650        -3.88130
N          23.27750        -7.29890        -3.53930
N          23.03730        -6.06320        -4.09480
N          23.54530        -5.13290        -3.42480
C          24.15280        -5.67220        -2.24290
C          24.84810        -5.10300        -1.17740
C          25.31900        -5.96030        -0.18730
C          25.11330        -7.34790        -0.24900
C          24.43050        -7.94730        -1.30300
C          23.94570        -7.10430        -2.30290
C          19.04150        -9.86580        -3.14700
C          18.60360       -10.88000        -2.25340
C          17.24650       -10.98400        -1.96540
C          16.33690       -10.09090        -2.55050
C          16.87150        -9.11110        -3.42530
N          18.16800        -8.98960        -3.73220
C          14.93190       -10.16440        -2.28680
C          14.23710       -11.14720        -1.54960
N          12.89340       -10.78220        -1.57940
N          12.68390        -9.65910        -2.26920
C          13.89340        -9.24380        -2.71970
H          23.64140       -14.18060        -0.44520
H          23.33460       -11.76570         0.09850
H          22.14500       -10.26190        -1.47230
H          21.55530       -13.58260        -4.19810
H          21.81230       -10.69250        -4.75870
H          20.26970       -11.60260        -4.45440
H          23.13850        -9.36290        -3.49500
H          22.46340        -8.54340        -5.00670
H          25.01410        -4.01740        -1.12460
H          25.86750        -5.54120         0.67010
H          25.50200        -7.98010         0.56460
H          24.27810        -9.03410        -1.34320
H          19.32790       -11.57040        -1.79680
H          16.89180       -11.76320        -1.27460
H          16.20390        -8.37820        -3.91630
H          14.58990       -12.03790        -1.03270
H          14.01090        -8.33780        -3.31410
H          12.13260       -11.26360        -1.16140

