%nprocshared=8
%mem=1600MB
#p b3lyp/cc-pvdz pop=(chelpg,readradii)

 Mol01.log

0  1
O           1.20835        -1.48886        -0.17729
C           1.34402        -0.41357        -0.73171
C           2.72133         0.03605        -1.26178
N           3.73595        -0.96305        -1.04499
N           4.23219        -1.65488        -2.11625
N           5.12582        -2.49062        -1.71296
C           5.24430        -2.37398        -0.34125
C           6.08003        -3.04643         0.56767
C           5.97982        -2.69770         1.90726
C           5.06755        -1.70340         2.34420
C           4.23144        -1.03210         1.46093
C           4.33963        -1.38727         0.10630
N           0.30243         0.47900        -0.93190
C           0.51512         1.80683        -1.52092
C           1.03191         2.85865        -0.55861
C           1.58648         4.10694        -1.00198
C           1.95565         4.92788         0.02974
S           1.63642         4.19660         1.57218
C           0.99802         2.77051         0.81149
C          -1.02847         0.11897        -0.51662
C          -2.09575         0.22299        -1.41661
C          -3.40316        -0.08921        -1.04163
C          -3.66040        -0.54360         0.26284
C          -2.58567        -0.67129         1.16085
C          -1.28804        -0.34386         0.78045
N          -4.94419        -0.89007         0.72635
C          -6.15216        -0.83042         0.06098
O          -6.27567        -0.44627        -1.09605
C          -7.32347        -1.27981         0.88089
C          -8.45423        -1.97627         0.13738
C          -8.64903        -0.57625         0.62577
H           2.68483         0.19154        -2.34916
H           3.01808         0.98750        -0.79193
H           6.77612        -3.80999         0.21732
H           6.61102        -3.19663         2.64547
H           5.01859        -1.46332         3.40873
H           3.52247        -0.27944         1.80718
H           1.19327         1.73362        -2.38479
H          -0.44815         2.14074        -1.93175
H           1.70644         4.37703        -2.05254
H           2.40515         5.91731        -0.02455
H           0.61844         1.95310         1.41935
H          -1.91086         0.54498        -2.44365
H          -4.22452         0.00083        -1.74705
H          -2.76780        -1.03352         2.17678
H          -0.47052        -0.47059         1.48853
H          -4.97891        -1.22499         1.68176
H          -7.12068        -1.60888         1.90355
H          -8.29641        -2.11442        -0.93389
H          -8.96101        -2.79239         0.65644
H          -9.29354        -0.40274         1.48994
H          -8.62094         0.22094        -0.11937

Br 1.90

