%nprocshared=8
%mem=1600MB
#p b3lyp/cc-pvdz pop=(chelpg,readradii)

 Mol09.log

0  1
O           0.18414        -1.74895        -0.08896
C           0.07046        -0.53835        -0.26921
C           1.03616         0.17303        -1.22956
N           2.35548         0.32295        -0.63762
N           2.82378         1.57501        -0.34525
N           4.02285         1.48857         0.12285
C           4.38648         0.15653         0.14730
C           5.58526        -0.45925         0.55104
C           5.65822        -1.84092         0.44848
C           4.56426        -2.60487        -0.03506
C           3.36998        -2.01729        -0.43248
C           3.30941        -0.61564        -0.33893
N          -0.87645         0.21163         0.37592
C          -1.75226        -0.48907         1.34614
C          -2.99871        -1.09543         0.74238
C          -4.30701        -0.51057         0.82696
C          -5.27224        -1.25417         0.20053
S          -4.60209        -2.69174        -0.51043
C          -3.01109        -2.28272         0.04734
C          -1.10269         1.61428         0.14859
C          -0.31027         2.56848         0.79981
C          -0.55546         3.92952         0.60062
C          -1.59639         4.34194        -0.23644
C          -2.39021         3.38903        -0.88235
C          -2.14554         2.02588        -0.69355
H           1.11218        -0.45961        -2.12656
H           0.71192         1.17828        -1.51707
H           6.41593         0.14024         0.92648
H           6.57105        -2.35837         0.75091
H           4.66215        -3.69170        -0.08539
H           2.51090        -2.60043        -0.76144
H          -1.13865        -1.27397         1.80636
H          -2.02365         0.24437         2.11729
H          -4.51520         0.42761         1.34375
H          -6.33775        -1.04918         0.12017
H          -2.15922        -2.92396        -0.16841
H           0.50979         2.24093         1.43978
H           0.07508         4.66852         1.09899
H          -1.78602         5.40657        -0.38961
H          -3.20165         3.70600        -1.54117
H          -2.75628         1.27460        -1.19639

Br 1.90

