%nprocshared=8
%mem=1600MB
#p b3lyp/cc-pvdz pop=(chelpg,readradii)

 Mol13.log

0  1
O           1.23964        -1.23079        -0.65786
C           1.58110        -0.10877        -0.98165
C           3.07638         0.23481        -1.15020
N           3.91484        -0.92034        -0.96228
N           4.50710        -1.49859        -2.05279
N           5.20590        -2.51248        -1.67544
C           5.08917        -2.63723        -0.30412
C           5.66062        -3.56544         0.58402
C           5.36376        -3.42639         1.93255
C           4.51414        -2.39034         2.39776
C           3.93784        -1.46710         1.53435
C           4.24494        -1.61093         0.17133
N           0.68711         0.92956        -1.22277
C           1.16562         2.29128        -1.49646
C           1.59559         3.09180        -0.28364
C           2.28357         4.34747        -0.39355
C           2.56640         4.91182         0.82133
S           2.00250         3.92335         2.13288
C           1.37806         2.73807         1.02639
C          -0.72939         0.71054        -1.15463
C          -1.30665        -0.48820        -1.60854
C          -2.68932        -0.65604        -1.57177
C          -3.52698         0.35065        -1.07643
C          -2.95298         1.54330        -0.62348
C          -1.57058         1.72451        -0.66640
N          -4.94533         0.13611        -1.07266
S          -5.68793        -0.40796         0.40651
O          -4.85416        -0.05189         1.58347
O          -7.08836         0.06160         0.28725
C          -5.63500        -2.18732         0.22368
C          -5.68053        -3.00198         1.49566
C          -4.41057        -2.93868         0.69129
H           3.27852         0.58658        -2.17167
H           3.36803         1.03378        -0.45061
H           6.31116        -4.35826         0.21185
H           5.78688        -4.12691         2.65536
H           4.30283        -2.32109         3.46716
H           3.27312        -0.68348         1.89932
H           1.99714         2.24815        -2.21669
H           0.35546         2.81707        -2.02299
H           2.55679         4.80771        -1.34455
H           3.07879         5.85004         1.02446
H           0.87716         1.84943         1.40521
H          -0.67683        -1.28585        -1.99294
H          -3.13643        -1.57740        -1.94799
H          -3.58833         2.33004        -0.21248
H          -1.14987         2.65542        -0.28529
H          -5.48080         0.97777        -1.30095
H          -6.19172        -2.50755        -0.65859
H          -5.69738        -2.44975         2.43719
H          -6.28712        -3.90931         1.46865
H          -4.11304        -3.80449         0.09576
H          -3.59325        -2.34449         1.10333

Br 1.90

