%nprocshared=8
%mem=1600MB
#p b3lyp/cc-pvdz pop=(chelpg,readradii)

 Mol17.log

0  1
S          -1.55858         5.32299        -0.21062
C           0.14546         5.03433        -0.09163
C          -1.90240         3.62046        -0.23674
C           0.43317         3.69724        -0.07390
C          -0.74485         2.87371        -0.15674
N          -0.65658         1.44699        -0.15417
C           3.23793        -0.28224         0.16357
C           2.65994        -0.02173        -1.09643
C           2.47966         0.02916         1.31119
C           1.39140         0.55041        -1.19771
C           1.21079         0.59732         1.21095
C           0.65800         0.85845        -0.04769
C          -1.78158         0.64012        -0.23704
C          -1.52014        -0.87831        -0.19043
O          -2.91810         1.07420        -0.31533
C          -3.85235        -1.81843         0.27745
N          -2.71385        -1.64073        -0.46048
C          -4.61199        -2.71741        -0.50169
N          -2.78400        -2.37643        -1.61301
N          -3.90187        -3.01554        -1.64888
C          -4.31009        -1.33079         1.51281
C          -5.55101        -1.78902         1.93660
C          -5.86956        -3.16557        -0.06010
C          -6.32285        -2.69406         1.16378
C           7.16737        -1.97843         0.62103
N           6.39657        -2.27420        -0.46100
C           6.69858        -1.11162         1.56791
C           5.11821        -1.75373        -0.74137
C           5.40308        -0.55553         1.38426
C           4.60101        -0.85136         0.29913
O           4.56447        -2.08489        -1.78618
H           0.84596         5.86491        -0.04318
H          -2.91952         3.25951        -0.31385
H           1.44655         3.30736        -0.00699
H           3.20985        -0.28183        -1.99777
H           2.87553        -0.19826         2.30259
H           0.96123         0.75918        -2.17933
H           0.63862         0.83467         2.11010
H          -0.78390        -1.18283        -0.94455
H          -1.11013        -1.15184         0.79562
H          -3.73668        -0.61261         2.09900
H          -5.95054        -1.43505         2.88970
H          -6.45364        -3.85839        -0.66773
H          -7.29445        -3.01741         1.54299
H           8.14523        -2.45936         0.66849
H           6.73952        -2.90701        -1.17895
H           7.30673        -0.85355         2.43306
H           5.03757         0.15146         2.13252

Br 1.90

