%nprocshared=8
%mem=1600MB
#p b3lyp/cc-pvdz pop=(chelpg,readradii)

 Mol12.log

0  1
C          -5.67666        -2.75228         0.82779
S          -5.99149        -0.98158         0.69207
O          -5.24395        -0.30023         1.77532
O          -7.44225        -0.75244         0.49904
N          -5.29137        -0.63582        -0.86633
C          -3.90133        -0.27308        -0.89948
C          -2.97128        -1.21972        -1.34558
C          -1.61156        -0.92050        -1.40718
C          -1.15126         0.35134        -1.02411
C          -2.08688         1.30297        -0.58131
C          -3.44484         0.99260        -0.51534
N           0.23715         0.69935        -1.11573
C           0.58714         2.08260        -1.48286
C           1.09370         2.94803        -0.34531
C           0.71361         2.80541         1.03229
C           1.28950         3.74614         1.84559
S           2.30898         4.82994         0.95257
C           1.96051         3.99957        -0.53078
C           1.22382        -0.23965        -0.83035
O           0.98739        -1.36793        -0.44011
C           2.67832         0.22955        -1.03079
N           3.61932        -0.84928        -0.87155
N           4.28454        -1.31868        -1.97262
N           5.09061        -2.25918        -1.61943
C           4.97795        -2.44112        -0.25425
C           5.64379        -3.32784         0.61054
C           5.32154        -3.26796         1.95892
C           4.35421        -2.35191         2.44633
C           3.68315        -1.47256         1.60628
C           4.01845        -1.53358         0.24364
H          -4.59155        -2.91468         0.79508
H          -6.08208        -3.05979         1.80113
H          -6.19232        -3.25638         0.00190
H          -5.90908         0.09009        -1.24035
H          -3.32838        -2.19897        -1.66989
H          -0.90889        -1.67340        -1.75343
H          -1.76239         2.29251        -0.25843
H          -4.15176         1.73295        -0.13797
H           1.33023         2.07024        -2.29467
H          -0.31743         2.52496        -1.92159
H           0.04781         2.02580         1.40225
H           1.17585         3.86392         2.92127
H           2.41567         4.33562        -1.46103
H           2.83102         0.60884        -2.05067
H           2.91237         1.04736        -0.33111
H           6.38312        -4.02914         0.22087
H           5.81545        -3.93950         2.66413
H           4.12564        -2.34450         3.51443
H           2.92426        -0.78762         1.98513

Br 1.90

