%nprocshared=8
%mem=1600MB
#p b3lyp/cc-pvdz pop=(chelpg,readradii)

 Mol14.log

0  1
O           0.98233        -1.46454        -0.42881
C           1.15264        -0.34689        -0.87716
C           2.55877         0.13586        -1.28972
N           3.56075        -0.87187        -1.06109
N           4.09842        -1.53838        -2.12882
N           4.96230        -2.39656        -1.70928
C           5.01652        -2.32336        -0.33024
C           5.79950        -3.03380         0.59641
C           5.63846        -2.72470         1.93995
C           4.71856        -1.73182         2.36339
C           3.93448        -1.02241         1.46208
C           4.10322        -1.33894         0.10417
N           0.12335         0.56799        -1.06256
C           0.38093         1.94115        -1.51656
C           0.85320         2.89079        -0.43307
C           1.45203         4.16218        -0.72740
C           1.76881         4.87921         0.39534
S           1.34454         4.01903         1.84260
C           0.73329         2.68017         0.91903
C          -1.22857         0.18813        -0.75752
C          -2.25195         0.44806        -1.68008
C          -3.57386         0.11566        -1.38754
C          -3.91503        -0.50980        -0.17603
C          -2.87585        -0.78677         0.73042
C          -1.55463        -0.44375         0.45138
C          -5.32131        -0.87025         0.13243
C          -6.39782        -0.06182        -0.27109
C          -7.70185        -0.44649         0.04519
N          -8.01513        -1.55888         0.72406
C          -6.98700        -2.32867         1.10768
C          -5.64755        -2.03772         0.84343
H           2.58778         0.34977        -2.36764
H           2.82124         1.06004        -0.75099
H           6.50295        -3.79536         0.25667
H           6.22722        -3.25417         2.69174
H           4.62183        -1.52284         3.43115
H           3.22149        -0.26827         1.79734
H           1.10481         1.93596        -2.34552
H          -0.55372         2.32660        -1.94684
H           1.64087         4.52321        -1.73981
H           2.23517         5.86028         0.45844
H           0.30592         1.81906         1.42699
H          -2.01576         0.89411        -2.64809
H          -4.34645         0.31007        -2.13380
H          -3.10570        -1.25528         1.68925
H          -0.77143        -0.67736         1.17032
H          -6.22385         0.87438        -0.80513
H          -8.54473         0.18238        -0.26141
H          -7.24807        -3.24014         1.65616
H          -4.86880        -2.73082         1.16698

Br 1.90

