%nprocshared=8
%mem=1600MB
#p b3lyp/cc-pvdz pop=(chelpg,readradii)

 Mol19.log

0  1
O           0.85121        -1.44947        -0.14099
C           0.94944        -0.37319        -0.70133
C           2.32665         0.14226        -1.16835
N           3.36688        -0.83334        -0.96362
N           3.94353        -1.42711        -2.05407
N           4.86411        -2.23995        -1.66533
C           4.92206        -2.20543        -0.28525
C           5.75749        -2.89090         0.61451
C           5.58580        -2.63544         1.96759
C           4.60207        -1.72236         2.42671
C           3.76504        -1.04049         1.55281
C           3.94780        -1.29827         0.18415
N          -0.13083         0.46114        -0.96057
C           0.06213         1.79635        -1.54013
C           0.51632         2.87256        -0.57449
C           0.95227         4.16847        -1.01414
C           1.30329         4.99577         0.01861
S           1.11425         4.21316         1.55737
C           0.55351         2.75588         0.79400
C          -1.46977         0.05096        -0.63883
C          -2.39774         0.99154        -0.16430
C          -3.71381         0.61867         0.10760
C          -4.15559        -0.70204        -0.08051
C          -3.21298        -1.63376        -0.55469
C          -1.89640        -1.27361        -0.83003
C          -5.54012        -1.10163         0.20662
C          -6.67907        -0.30091         0.24161
N          -7.71769        -1.11959         0.55059
N          -7.35464        -2.40434         0.72611
C          -6.04006        -2.40041         0.51716
H           2.32152         0.34434        -2.24855
H           2.57757         1.08113        -0.64944
H           6.50743        -3.59286         0.24687
H           6.21388        -3.14738         2.69950
H           4.49566        -1.55747         3.50125
H           2.99673        -0.35729         1.91526
H           0.77673         1.73439        -2.37572
H          -0.89431         2.08837        -1.99821
H           1.00269         4.46705        -2.06259
H           1.66841         6.01953        -0.03337
H           0.27539         1.89540         1.39902
H          -2.09235         2.02246         0.01995
H          -4.40091         1.37043         0.50211
H          -3.51990        -2.66572        -0.73607
H          -1.19827        -2.02392        -1.19295
H          -6.82401         0.75902         0.05151
H          -5.48142        -3.32906         0.61612
H          -8.69206        -0.86498         0.64753

Br 1.90

