%nprocshared=8
%mem=1600MB
#p b3lyp/cc-pvdz pop=(chelpg,readradii)

 Mol26.log

0  1
O           1.02177        -1.20821        -0.50469
C           1.19252        -0.01917        -0.70048
C           2.61116         0.54432        -0.93996
N           3.60321        -0.50101        -0.95859
N           4.17488        -0.85608        -2.14987
N           5.03202        -1.79768        -1.95317
C           5.04725        -2.09817        -0.60470
C           5.80812        -3.03412         0.11782
C           5.60840        -3.09868         1.48965
C           4.67091        -2.25516         2.13871
C           3.90827        -1.32773         1.44017
C           4.11647        -1.26511         0.05257
N           0.14967         0.89816        -0.72489
C           0.34686         2.34393        -0.87783
C           0.11662         3.16154         0.41202
C           0.62057         4.61194         0.21570
C           2.06898         4.57313         0.77847
O           2.29216         3.23917         1.25664
C           1.00886         2.70318         1.56942
C          -1.19681         0.43234        -0.53400
C          -2.19433         0.78678        -1.45220
C          -3.51191         0.37056        -1.26410
C          -3.87377        -0.42351        -0.16170
C          -2.85926        -0.78431         0.74437
C          -1.54261        -0.36468         0.56612
C          -5.27471        -0.86993         0.03480
C          -6.37003        -0.04071        -0.25824
C          -7.66392        -0.51694        -0.05411
C          -7.82999        -1.81180         0.44440
N          -6.80614        -2.62839         0.72814
C          -5.57160        -2.15882         0.52068
H           2.67172         1.02347        -1.92740
H           2.86780         1.30092        -0.18018
H           6.52474        -3.67745        -0.39493
H           6.17894        -3.81261         2.08719
H           4.54247        -2.34217         3.21997
H           3.17966        -0.69297         1.94533
H           1.36219         2.52582        -1.24587
H          -0.33026         2.72356        -1.65885
H          -0.94905         3.12581         0.68388
H           0.59054         4.92163        -0.84084
H          -0.00083         5.32206         0.78051
H           2.84183         4.78721         0.02511
H           2.19060         5.29359         1.60848
H           0.63381         3.10449         2.53266
H           1.10732         1.61281         1.66649
H          -1.93901         1.37293        -2.33690
H          -4.26365         0.63752        -2.00971
H          -3.10762        -1.38444         1.62184
H          -0.77634        -0.66276         1.28013
H          -6.20707         0.97664        -0.62140
H          -8.53300         0.10897        -0.26697
H          -8.83254        -2.21375         0.62491
H          -4.75550        -2.85713         0.73408

Br 1.90

