%nprocshared=8
%mem=1600MB
#p b3lyp/cc-pvdz pop=(chelpg,readradii)

 Mol22.log

0  1
C           1.70964         5.13945        -0.05413
C           0.41542         4.59896         0.57213
C           0.19840         5.19756         1.96812
C           0.38824         3.06032         0.64192
C           0.41035         2.36134        -0.72446
N           0.25172         0.89956        -0.62888
C           1.31348         0.01482        -0.57192
O           1.17685        -1.18221        -0.38988
C           2.71835         0.62584        -0.75336
N           3.74820        -0.38103        -0.81023
N           4.44682        -0.54350        -1.97703
N           5.34621        -1.45125        -1.81786
C           5.26860        -1.91948        -0.52020
C           6.03212        -2.89185         0.14968
C           5.72563        -3.14090         1.47989
C           4.67784        -2.44665         2.13720
C           3.90894        -1.48857         1.48895
C           4.22869        -1.23462         0.14488
C          -1.08301         0.39003        -0.46472
C          -1.44111        -0.37044         0.65618
C          -2.74487        -0.84176         0.79673
C          -3.73186        -0.56743        -0.16785
C          -3.35800         0.19390        -1.28942
C          -2.05179         0.65867        -1.44002
C          -5.11864        -1.06994        -0.00958
C          -5.39461        -2.34726         0.50585
C          -6.71908        -2.76348         0.62891
C          -7.73571        -1.89187         0.22920
N          -7.50464        -0.66576        -0.25983
C          -6.22887        -0.28014        -0.36695
H           2.59264         4.82038         0.52782
H           1.85065         4.79963        -1.09275
H           1.70675         6.24123        -0.07136
H          -0.43126         4.91808        -0.06664
H           1.01537         4.90886         2.65239
H           0.17042         6.29844         1.92985
H          -0.74851         4.85126         2.41322
H           1.24119         2.70640         1.25127
H          -0.52419         2.74086         1.17403
H          -0.41008         2.74967        -1.34671
H           1.33402         2.58679        -1.27126
H           2.79304         1.17232        -1.70322
H           2.93039         1.33632         0.06339
H           6.83237        -3.42048        -0.37038
H           6.29494        -3.88824         2.03631
H           4.46437        -2.68041         3.18267
H           3.08796        -0.97944         1.99377
H          -0.69457        -0.59803         1.41611
H          -3.00713        -1.41397         1.68910
H          -4.08755         0.39338        -2.07664
H          -1.77806         1.21568        -2.33834
H          -4.57657        -3.01578         0.78368
H          -6.96216        -3.75438         1.01791
H          -8.78632        -2.19145         0.30454
H          -6.06967         0.73539        -0.74506

Br 1.90

