%nprocshared=8
%mem=1600MB
#p b3lyp/cc-pvdz pop=(chelpg,readradii)

 Mol24.log

0  1
O           1.04630        -0.55892         2.11908
C           1.43347         0.29021         1.32591
C           2.90619         0.74289         1.38862
N           3.73019         0.06503         0.40332
N           4.36782         0.77937        -0.57366
N           5.05724        -0.02168        -1.31372
C           4.89323        -1.30680        -0.83484
C           5.43148        -2.52951        -1.27623
C           5.07503        -3.67222        -0.57426
C           4.19866        -3.61484         0.54086
C           3.65402        -2.41921         0.99223
C           4.02824        -1.26637         0.27966
N           0.62967         0.83439         0.34918
C           1.06662         1.91349        -0.56181
C           0.78233         3.31830        -0.03771
C           1.14576         4.51485        -0.96279
C          -0.14318         5.23180        -0.47620
C          -0.67759         3.85878         0.01365
C          -0.73088         0.37672         0.24637
C          -1.60603         0.45135         1.33745
C          -2.92407         0.01768         1.21027
C          -3.41160        -0.49927        -0.00458
C          -2.51977        -0.57530        -1.08890
C          -1.19648        -0.15202        -0.96359
C          -4.81854        -0.95247        -0.13504
C          -5.88209        -0.26919         0.47741
C          -7.18325        -0.74251         0.31708
C          -7.38905        -1.88759        -0.45689
N          -6.39524        -2.56516        -1.04769
C          -5.15269        -2.10108        -0.87933
H           3.05229         1.81783         1.22996
H           3.25167         0.47994         2.39803
H           6.10077        -2.56201        -2.13714
H           5.47067        -4.64162        -0.88421
H           3.94013        -4.54270         1.05588
H           2.95916        -2.37073         1.83105
H           2.13693         1.79911        -0.78104
H           0.54338         1.76876        -1.51868
H           1.26345         3.44712         0.94778
H           2.11336         5.01249        -0.79931
H           1.07547         4.23137        -2.02623
H           0.06323         5.91360         0.36370
H          -0.73912         5.77257        -1.22623
H          -1.30938         3.37268        -0.74711
H          -1.20612         3.82174         0.97767
H          -1.24681         0.83385         2.29222
H          -3.58187         0.06166         2.08076
H          -2.86613        -0.95842        -2.05060
H          -0.51943        -0.23678        -1.81586
H          -5.69171         0.63807         1.05533
H          -8.02908        -0.22621         0.77576
H          -8.39954        -2.28089        -0.61024
H          -4.35826        -2.68975        -1.35023

Br 1.90

