%nprocshared=8
%mem=1600MB
#p b3lyp/cc-pvdz pop=(chelpg,readradii)

 Mol21.log

0  1
O           0.83022        -1.44298        -0.10121
C           0.93486        -0.37738        -0.68074
C           2.31422         0.11864        -1.16240
N           3.34788        -0.86306        -0.94986
N           3.93313        -1.45511        -2.03630
N           4.85180        -2.26765        -1.64174
C           4.90030        -2.23340        -0.26142
C           5.73049        -2.91818         0.64382
C           5.54992        -2.66284         1.99571
C           4.56202        -1.75096         2.44841
C           3.72976        -1.07030         1.56918
C           3.92192        -1.32733         0.20159
N          -0.13826         0.46193        -0.94856
C           0.06100         1.78505        -1.55228
C           0.53310         2.87387        -0.60945
C           0.97252         4.15956        -1.07505
C           1.34014         5.00164        -0.06023
S           1.16321         4.24563         1.49335
C           0.58478         2.77948         0.76014
C          -1.48087         0.06401        -0.62070
C          -2.39219         1.01232        -0.12923
C          -3.71240         0.65459         0.14183
C          -4.16535        -0.65955        -0.05753
C          -3.24250        -1.60179        -0.54602
C          -1.92421        -1.25270        -0.82637
C          -5.54983        -1.06288         0.22585
C          -6.59698        -0.30626         0.72562
N          -7.67019        -1.16698         0.80117
C          -7.24548        -2.38749         0.35466
N          -5.97983        -2.36049         0.00183
H           2.30613         0.30603        -2.24518
H           2.57608         1.06239        -0.65780
H           6.48334        -3.61956         0.28100
H           6.17373        -3.17423         2.73170
H           4.44799        -1.58664         3.52228
H           2.95679        -0.38973         1.92627
H           0.76706         1.70417        -2.39382
H          -0.89776         2.07783        -2.00496
H           1.01321         4.44034        -2.12885
H           1.71114         6.02199        -0.13332
H           0.30769         1.93063         1.38182
H          -2.07269         2.03874         0.05646
H          -4.39223         1.42000         0.52268
H          -3.58327        -2.62448        -0.70959
H          -1.23460        -2.00708        -1.19826
H          -6.67727         0.73276         1.02795
H          -7.90252        -3.25365         0.31041
H          -8.59905        -0.93479         1.12906

Br 1.90

