%nprocshared=8
%mem=1600MB
#p b3lyp/cc-pvdz pop=(chelpg,readradii)

 Mol25.log

0  1
O           1.29094        -1.21837        -0.31016
C           1.39275        -0.04709        -0.62961
C           2.77973         0.57030        -0.90364
N           3.83148        -0.41472        -0.87043
N           4.51501        -0.68495        -2.02637
N           5.43767        -1.55111        -1.78890
C           5.39190        -1.88080        -0.44789
C           6.18872        -2.76071         0.30580
C           5.90981        -2.87481         1.66026
C           4.85677        -2.13784         2.26015
C           4.05535        -1.26992         1.52958
C           4.34711        -1.15208         0.16050
N           0.30643         0.80112        -0.76883
C           0.44057         2.23791        -1.07107
C           0.56217         3.15334         0.15535
C           0.82941         4.62871        -0.24282
C           0.20465         5.50165         0.88389
C          -0.40381         4.50333         1.89645
C          -0.67620         3.24069         1.06648
C          -1.01447         0.26539        -0.57675
C          -1.99014         0.44368        -1.56646
C          -3.28204        -0.05011        -1.38715
C          -3.63676        -0.75278        -0.22230
C          -2.64179        -0.94125         0.75496
C          -1.35205        -0.44209         0.58489
C          -5.00990        -1.28089        -0.03266
C          -6.14714        -0.56941        -0.44952
C          -7.41197        -1.11757        -0.24329
C          -7.50803        -2.36383         0.38143
N          -6.44254        -3.06913         0.78506
C          -5.23631        -2.53239         0.57386
H           2.82664         1.01052        -1.90880
H           2.98852         1.37137        -0.17486
H           6.99213        -3.32409        -0.17107
H           6.50491        -3.54729         2.28142
H           4.66542        -2.26510         3.32805
H           3.23111        -0.72851         1.99380
H           1.30536         2.38788        -1.73225
H          -0.43930         2.54161        -1.65701
H           1.40831         2.79814         0.77265
H           1.90463         4.82181        -0.38151
H           0.34543         4.84744        -1.21069
H           0.94554         6.16453         1.35603
H          -0.58063         6.15346         0.46875
H           0.32953         4.26963         2.68787
H          -1.30308         4.89398         2.39670
H          -1.58287         3.37765         0.44843
H          -0.83367         2.34088         1.67905
H          -1.73541         0.95292        -2.49801
H          -4.01521         0.08085        -2.18570
H          -2.88666        -1.46552         1.68073
H          -0.60118        -0.60384         1.35673
H          -6.04049         0.41554        -0.90991
H          -8.31295        -0.58270        -0.55079
H          -8.48676        -2.81863         0.56729
H          -4.38303        -3.14270         0.88794

Br 1.90

