%nprocshared=8
%mem=1600MB
#p b3lyp/cc-pvdz pop=(chelpg,readradii)

 Mol28.log

0  1
Cl         -2.97234         5.91695        -0.45614
C          -2.19939         4.45342         0.13585
C          -2.16900         4.20031         1.51009
C          -1.55420         3.03107         1.95908
C          -0.97838         2.13088         1.05551
C          -1.01252         2.39261        -0.31988
C          -1.63323         3.56504        -0.77753
C          -0.38246         1.46162        -1.35084
N           0.02898         0.13949        -0.86718
C          -0.90042        -0.87634        -0.66613
O          -0.62077        -1.95771        -0.18462
C          -2.34865        -0.56008        -1.09538
N          -3.21741        -1.69568        -0.92798
N          -3.65964        -2.36549        -2.03753
N          -4.41883        -3.34085        -1.67645
C          -4.49768        -3.34565        -0.29670
C          -5.20023        -4.19244         0.57863
C          -5.09207        -3.93797         1.93861
C          -4.30063        -2.86766         2.42809
C          -3.59679        -2.02372         1.57821
C          -3.71371        -2.28371         0.20297
C           1.42122        -0.07548        -0.58764
C           2.19766         0.96338        -0.05040
C           3.56282         0.78719         0.17707
C           4.20033        -0.43006        -0.11249
C           3.40894        -1.46443        -0.64549
C           2.04684        -1.29794        -0.88370
C           5.65168        -0.61626         0.13149
C           6.29597        -0.07298         1.25534
C           7.66343        -0.28040         1.42785
C           8.35299        -1.03130         0.47207
N           7.76805        -1.55795        -0.61249
C           6.45690        -1.34583        -0.76534
H          -2.62120         4.90611         2.20698
H          -1.52290         2.81846         3.02982
H          -0.50030         1.22230         1.42505
H          -1.67925         3.79001        -1.84507
H          -1.07418         1.34398        -2.19903
H           0.51312         1.94010        -1.77232
H          -2.73934         0.30198        -0.53200
H          -2.38759        -0.31020        -2.16514
H          -5.80337        -5.01339         0.18815
H          -5.62134        -4.57270         2.65215
H          -4.23850        -2.70762         3.50682
H          -2.97584        -1.21466         1.96404
H           1.74273         1.92294         0.19870
H           4.14259         1.62390         0.57204
H           3.86248        -2.43304        -0.86424
H           1.46562        -2.12491        -1.28370
H           5.72442         0.48710         1.99903
H           8.18757         0.12361         2.29642
H           9.42614        -1.21999         0.58150
H           6.01056        -1.76670        -1.67258

Br 1.90

