%nprocshared=8
%mem=1600MB
#p b3lyp/cc-pvdz pop=(chelpg,readradii)

 Mol20.log

0  1
C          -8.83064        -0.60265         0.80012
N          -7.47449        -0.94365         0.41219
C          -7.03038        -2.15459        -0.04676
N          -5.74338        -2.14644        -0.31468
C          -5.30914        -0.86644        -0.01948
C          -6.37762        -0.10866         0.43365
C          -3.90384        -0.47754        -0.19869
C          -2.96919        -1.41300        -0.67809
C          -1.63111        -1.07674        -0.86457
C          -1.17741         0.21933        -0.56970
C          -2.10137         1.15994        -0.08621
C          -3.44109         0.81646         0.09087
N           0.19155         0.60340        -0.79143
C           0.45093         1.93725        -1.35891
C           1.06146         2.94168        -0.40165
C           0.82840         2.97371         1.01520
C           1.46880         4.01151         1.63998
S           2.37295         4.97756         0.51615
C           1.88673         3.96385        -0.80681
C           1.22441        -0.26877        -0.47857
O           1.05208        -1.35948         0.03732
C           2.65052         0.22265        -0.79174
N           3.61445        -0.85185        -0.77941
N           4.23928        -1.18231        -1.95204
N           5.10675        -2.10938        -1.73255
C           5.08290        -2.41790        -0.38637
C           5.84221        -3.34187         0.35402
C           5.60213        -3.41849         1.71818
C           4.62222        -2.60290         2.34093
C           3.85770        -1.69135         1.62477
C           4.11240        -1.61025         0.24528
H          -8.87286        -0.30052         1.85846
H          -9.22136         0.21942         0.17993
H          -9.47369        -1.48208         0.66099
H          -7.70103        -3.00460        -0.16231
H          -6.45976         0.92301         0.76196
H          -3.31735        -2.41962        -0.91120
H          -0.93350        -1.82576        -1.23213
H          -1.78099         2.17252         0.16376
H          -4.12917         1.57586         0.46877
H           1.08811         1.84592        -2.25274
H          -0.51667         2.30752        -1.72339
H           0.21939         2.24167         1.54545
H           1.46635         4.26334         2.69853
H           2.23923         4.17996        -1.81401
H           2.72394         0.66775        -1.79200
H           2.93545         0.99820        -0.06219
H           6.58805        -3.96597        -0.14053
H           6.16985        -4.12286         2.32972
H           4.45705        -2.70461         3.41595
H           3.08186        -1.09404         2.10264

Br 1.90

