%nprocshared=8
%mem=1600MB
#p b3lyp/cc-pvdz pop=(chelpg,readradii)

 Mol36.log

0  1
Cl         -2.52942         6.01025        -0.36921
C          -1.81692         4.50877         0.20483
C          -1.79818         4.23772         1.57578
C          -1.23177         3.03882         2.01019
C          -0.69193         2.12760         1.09565
C          -0.71346         2.40779        -0.27638
C          -1.28629         3.60988        -0.71944
C          -0.11824         1.46549        -1.31790
N           0.24290         0.12401        -0.84947
C          -0.72198        -0.85936        -0.66319
O          -0.48291        -1.95795        -0.19785
C          -2.15796        -0.48372        -1.08565
N          -3.06601        -1.59326        -0.95045
N          -3.55401        -2.19484        -2.07945
N          -4.35155        -3.14999        -1.74733
C          -4.41189        -3.20879        -0.36803
C          -5.14049        -4.05910         0.48244
C          -5.00314        -3.86631         1.84981
C          -4.15722        -2.85385         2.37062
C          -3.42673        -2.00807         1.54564
C          -3.57388        -2.20471         0.16275
C           1.62712        -0.14518        -0.57019
C           2.43839         0.85381        -0.00943
C           3.79382         0.62292         0.22414
C           4.39251        -0.60876        -0.09066
C           3.56556        -1.60097        -0.65067
C           2.21112        -1.38228        -0.88791
C           5.81994        -0.85811         0.15241
C           6.85083         0.07200         0.26152
N           7.98781        -0.63602         0.48492
N           7.79015        -1.96700         0.53544
C           6.48222        -2.10791         0.33256
H          -2.22197         4.95254         2.28129
H          -1.21021         2.81152         3.07815
H          -0.25066         1.19612         1.45373
H          -1.32216         3.84985        -1.78412
H          -0.81343         1.38493        -2.16769
H           0.79576         1.91475        -1.73201
H          -2.51949         0.37546        -0.49856
H          -2.18897        -0.20315        -2.14793
H          -5.78521        -4.83533         0.06767
H          -5.55119        -4.50575         2.54475
H          -4.07314        -2.74210         3.45393
H          -2.76234        -1.24649         1.95468
H           2.01385         1.81883         0.27082
H           4.38825         1.41342         0.68720
H           3.99483        -2.56480        -0.93118
H           1.60597        -2.17546        -1.32011
H           6.85986         1.15507         0.17505
H           6.04548        -3.10460         0.34189
H           8.92436        -0.27182         0.60284

Br 1.90

