%nprocshared=8
%mem=1600MB
#p b3lyp/cc-pvdz pop=(chelpg,readradii)

 Mol39.log

0  1
Cl         -2.75646         5.96070        -0.42794
C          -2.00243         4.48861         0.16689
C          -2.00826         4.21976         1.53857
C          -1.40780         3.04409         1.98981
C          -0.81057         2.15291         1.09101
C          -0.80817         2.43043        -0.28169
C          -1.41450         3.60954        -0.74160
C          -0.15427         1.51033        -1.30813
N           0.26372         0.19040        -0.82566
C          -0.64980        -0.84245        -0.63733
O          -0.35106        -1.91772        -0.15439
C          -2.09725        -0.54930        -1.08035
N          -2.94671        -1.70413        -0.94749
N          -3.39411        -2.33326        -2.07900
N          -4.14589        -3.32540        -1.75013
C          -4.21633        -3.38226        -0.37112
C          -4.90994        -4.26485         0.47556
C          -4.79600        -4.06062         1.84342
C          -4.00682        -3.00552         2.36836
C          -3.31115        -2.12732         1.54708
C          -3.43458        -2.33580         0.16364
C           1.65027        -0.00860        -0.52096
C           2.40965         1.00209         0.08283
C           3.76504         0.79074         0.31706
C           4.34800        -0.43365        -0.05072
N           3.61546        -1.40692        -0.63253
C           2.31966        -1.19992        -0.85819
C           5.76729        -0.73142         0.16068
C           6.76844         0.06545         0.71078
N           7.90425        -0.67565         0.67795
N           7.73112        -1.90492         0.14704
C           6.44013        -1.94373        -0.16745
H          -2.47714         4.91844         2.23159
H          -1.40526         2.81872         3.05839
H          -0.34593         1.23839         1.46319
H          -1.43237         3.84685        -1.80730
H          -0.83215         1.39142        -2.16750
H           0.74342         2.00005        -1.71307
H          -2.51052         0.29492        -0.50550
H          -2.12851        -0.27914        -2.14537
H          -5.51077        -5.07389         0.05765
H          -5.31817        -4.72433         2.53550
H          -3.93899        -2.88602         3.45198
H          -2.68971        -1.33216         1.95975
H           1.95129         1.94757         0.37775
H           4.36058         1.57465         0.78808
H           1.77442        -2.02108        -1.32484
H           6.76075         1.07565         1.11108
H           6.00492        -2.82971        -0.62120
H           8.82380        -0.40253         0.99984

Br 1.90

