%nprocshared=8
%mem=1600MB
#p b3lyp/cc-pvdz pop=(chelpg,readradii)

 Mol32.log

0  1
Cl         -4.88899         3.98922        -0.95852
C          -3.24957         3.52821        -0.53172
C          -2.43857         4.45079         0.12901
C          -1.14088         4.05730         0.46529
C          -0.65371         2.78804         0.15532
C          -1.48512         1.87590        -0.51091
C          -2.79273         2.24725        -0.85237
C          -0.97516         0.49901        -0.91479
N          -0.21571        -0.21305         0.13181
C          -0.83435        -0.86059         1.18543
O          -0.21930        -1.44060         2.06821
C          -2.37515        -0.87719         1.21334
N          -2.92856        -1.89266         0.33446
N          -3.68800        -1.53609        -0.74750
N          -4.09118        -2.59727        -1.36062
C          -3.60540        -3.70067        -0.68715
C          -3.76440        -5.07598        -0.93857
C          -3.14274        -5.95792        -0.06634
C          -2.37213        -5.49548         1.03253
C          -2.20042        -4.14281         1.29784
C          -2.84242        -3.25749         0.41431
C           1.21894        -0.25761         0.03347
C           1.82510        -0.69375        -1.15226
C           3.21443        -0.71655        -1.26968
C           4.04144        -0.32208        -0.20321
C           3.41846         0.09701         0.98699
C           2.03046         0.12996         1.10838
C           5.51932        -0.35285        -0.32781
C           6.17520         0.00679        -1.51675
C           7.56684        -0.04433        -1.57340
C           8.26902        -0.45003        -0.43534
N           7.67205        -0.80439         0.71087
C           6.33649        -0.75524         0.74702
Cl         -0.09862         5.20038         1.29831
H          -2.80613         5.44465         0.37833
H           0.36571         2.51848         0.43002
H          -3.45619         1.54045        -1.35304
H          -1.81563        -0.11507        -1.26249
H          -0.29783         0.61374        -1.77168
H          -2.64987        -1.10510         2.25227
H          -2.83207         0.07644         0.92469
H          -4.35543        -5.41951        -1.78871
H          -3.24059        -7.03368        -0.22551
H          -1.89366        -6.22845         1.68576
H          -1.58682        -3.78201         2.12378
H           1.20961        -1.04090        -1.98463
H           3.66183        -1.08424        -2.19531
H           4.02926         0.43094         1.82781
H           1.57368         0.45780         2.04118
H           5.59961         0.34602        -2.38106
H           8.10264         0.23717        -2.48222
H           9.36324        -0.49271        -0.44304
H           5.87460        -1.07611         1.68672

Br 1.90

