%nprocshared=8
%mem=1600MB
#p b3lyp/cc-pvdz pop=(chelpg,readradii)

 Mol33.log

0  1
C          -4.35185         4.54885        -1.19859
C          -3.01898         4.01035        -0.73668
C          -2.12206         4.82024        -0.02979
C          -0.89061         4.29945         0.37624
C          -0.52132         2.98660         0.09478
C          -1.41396         2.16738        -0.61328
C          -2.65148         2.68303        -1.01585
C          -1.03761         0.74181        -0.99114
N          -0.37551        -0.03262         0.07938
C          -1.07675        -0.58195         1.13531
O          -0.54498        -1.20901         2.04066
C          -2.60960        -0.42351         1.13765
N          -3.26195        -1.40337         0.28562
N          -3.98099        -1.00299        -0.80795
N          -4.49176        -2.03502        -1.39069
C          -4.12169        -3.16197        -0.68368
C          -4.42014        -4.52071        -0.89529
C          -3.89202        -5.43550         0.00434
C          -3.07883        -5.02206         1.09204
C          -2.76986        -3.68680         1.31825
C          -3.31734        -2.76688         0.40660
C           1.04576        -0.23837         0.00477
C           1.61711        -0.75222        -1.16714
C           2.99700        -0.92948        -1.26339
C           3.84743        -0.61624        -0.18855
C           3.25775        -0.11793         0.98800
C           1.88039         0.06918         1.08810
C           5.31470        -0.80924        -0.29053
C           6.02297        -0.53339        -1.47178
C           7.40164        -0.73529        -1.50658
C           8.03912        -1.20441        -0.35491
N           7.39062        -1.48215         0.78443
C           6.06780        -1.28842         0.79953
Cl          0.22287         5.33271         1.26757
H          -5.16842         3.84708        -0.96579
H          -4.58447         5.51476        -0.72727
H          -4.35771         4.69945        -2.29176
H          -2.37761         5.85281         0.21223
H           0.44755         2.61177         0.42376
H          -3.35140         2.03262        -1.54797
H          -1.92840         0.21002        -1.35020
H          -0.33350         0.77314        -1.83348
H          -2.92199        -0.58098         2.17910
H          -2.95142         0.56356         0.80576
H          -5.04265        -4.82716        -1.73714
H          -4.09898        -6.49992        -0.12392
H          -2.67805        -5.78053         1.76809
H          -2.12277        -3.36536         2.13481
H           0.97860        -1.03850        -2.00522
H           3.41396        -1.35467        -2.17857
H           3.88998         0.15652         1.83456
H           1.44998         0.45652         2.01044
H           5.49967        -0.14173        -2.34714
H           7.97800        -0.52132        -2.40900
H           9.12233        -1.36509        -0.34536
H           5.56004        -1.54892         1.73421

Br 1.90

