%nprocshared=8
%mem=1600MB
#p b3lyp/cc-pvdz pop=(chelpg,readradii)

 Mol34.log

0  1
Cl         -2.89394         5.96063        -0.37132
C          -2.13803         4.46302         0.13398
C          -2.08337         4.13176         1.49410
N          -1.52239         3.00225         1.92860
C          -0.99447         2.16726         1.02126
C          -0.99861         2.40735        -0.35900
C          -1.59411         3.59457        -0.80707
C          -0.37935         1.45618        -1.37480
N           0.01999         0.13798        -0.87293
C          -0.91367        -0.87514        -0.67147
O          -0.63537        -1.95685        -0.19185
C          -2.36207        -0.55371        -1.09677
N          -3.23542        -1.68405        -0.92392
N          -3.68504        -2.35286        -2.03174
N          -4.44757        -3.32370        -1.66659
C          -4.52175        -3.32667        -0.28642
C          -5.22575        -4.16916         0.59189
C          -5.11203        -3.91357         1.95117
C          -4.31403        -2.84651         2.43704
C          -3.60845        -2.00682         1.58435
C          -3.73096        -2.26820         0.20984
C           1.41188        -0.08344        -0.59169
C           2.18768         0.94643        -0.03774
C           3.55152         0.76426         0.19283
C           4.18680        -0.45082        -0.11038
C           3.39554        -1.47631        -0.66055
C           2.03483        -1.30318        -0.90216
C           5.63659        -0.64397         0.13779
C           6.27599        -0.11981         1.27341
C           7.64214        -0.33286         1.44929
C           8.33497        -1.06966         0.48492
N           7.75452        -1.57778        -0.61086
C           6.44453        -1.36087        -0.76663
H          -2.50996         4.80434         2.24344
H          -0.54404         1.25369         1.41951
H          -1.63704         3.84106        -1.87044
H          -1.07424         1.33473        -2.22029
H           0.52021         1.92147        -1.80320
H          -2.74763         0.31157        -0.53440
H          -2.40341        -0.30673        -2.16729
H          -5.83412        -4.98752         0.20412
H          -5.64219        -4.54483         2.66710
H          -4.24793        -2.68495         3.51523
H          -2.98320        -1.20043         1.96896
H           1.73414         1.90383         0.22251
H           4.13163         1.59367         0.60226
H           3.84796        -2.44292        -0.89000
H           1.45277        -2.12316        -1.31544
H           5.70177         0.42936         2.02315
H           8.16267         0.05595         2.32689
H           9.40719        -1.26219         0.59662
H           6.00176        -1.76654        -1.68255

Br 1.90

