%nprocshared=8
%mem=1600MB
#p b3lyp/cc-pvdz pop=(chelpg,readradii)

 Mol37.log

0  1
C          -4.44752         0.11790         0.31270
C          -5.09651         1.20997        -0.30269
C          -5.08791        -1.11540         0.52613
C          -6.43572         1.10531        -0.72046
C          -6.41143        -1.19598         0.11212
C          -7.07928        -0.10408        -0.50088
N          -3.19372         0.60410         0.58115
N          -4.21073         2.26711        -0.37633
N          -3.09227         1.89935         0.15048
C          -2.06569        -0.01575         1.25658
C          -1.47041        -1.15380         0.41249
N          -0.29395        -0.92153        -0.25172
O          -2.07172        -2.22301         0.33655
C           0.20990        -1.98157        -1.15501
C           3.49209        -3.69533        -0.23956
C           3.08169        -4.67029         0.66948
C           2.57611        -2.82321        -0.83282
C           1.72120        -4.76573         0.98090
C           1.21488        -2.92163        -0.51509
C           0.79179        -3.90399         0.39619
Cl          5.19946        -3.55750        -0.65105
C           2.35786         1.49276         0.80822
C           2.06118         2.62759         0.02838
C           1.57842         0.33919         0.73319
C           0.95163         2.55696        -0.83600
C           0.48132         0.28534        -0.13736
C           0.17708         1.40171        -0.92613
C           2.87680         3.84677         0.10972
C           3.73849         4.23984         1.13146
C           2.97950         4.90903        -0.83620
N           4.26505         5.43192         0.75446
N           3.82128         5.86109        -0.44273
H          -4.55580        -1.96303         0.95571
H          -6.93453         1.95099        -1.19620
H          -6.95391        -2.13371         0.25230
H          -8.11930        -0.22736        -0.81005
H          -1.35660         0.78923         1.47436
H          -2.41170        -0.46794         2.19796
H          -0.67023        -2.54757        -1.48712
H           0.65985        -1.47968        -2.02260
H           3.81306        -5.34259         1.11896
H           2.92813        -2.07186        -1.54140
H           1.38654        -5.53052         1.68543
H          -0.26964        -3.98291         0.63709
H           3.22276         1.50380         1.47456
H           1.82209        -0.53049         1.34529
H           0.67326         3.42650        -1.43355
H          -0.68939         1.37429        -1.58810
H           3.99118         3.78017         2.08289
H           2.48270         5.00327        -1.79970
H           4.92226         6.00284         1.27030

Br 1.90

