%nprocshared=8
%mem=1600MB
#p b3lyp/cc-pvdz pop=(chelpg,readradii)

 Mol31.log

0  1
F          -4.07215         4.57968        -1.17266
C          -2.89720         4.06357        -0.76356
C          -2.02060         4.88346        -0.06074
C          -0.81329         4.32193         0.36056
C          -0.48576         2.99284         0.09060
C          -1.38984         2.19171        -0.62266
C          -2.61071         2.73119        -1.04974
C          -1.04725         0.75403        -0.98859
N          -0.39662        -0.02199         0.08479
C          -1.10725        -0.55720         1.14325
O          -0.58430        -1.18600         2.05169
C          -2.63807        -0.37924         1.14209
N          -3.30028        -1.34682         0.28439
N          -3.99249        -0.93414        -0.82240
N          -4.51364        -1.95677        -1.41179
C          -4.17790        -3.08960        -0.69700
C          -4.49961        -4.44243        -0.91198
C          -4.00381        -5.36611        -0.00311
C          -3.19987        -4.96727         1.09684
C          -2.86863        -3.63797         1.32671
C          -3.38379        -2.70883         0.40581
C           1.02184        -0.25039         0.01026
C           1.58386        -0.77994        -1.15905
C           2.96058        -0.98061        -1.25459
C           3.81646        -0.67573        -0.18163
C           3.23562        -0.16114         0.99228
C           1.86151         0.04925         1.09178
C           5.28020        -0.89459        -0.28242
C           5.99308        -0.63830        -1.46528
C           7.36801        -0.86433        -1.49856
C           7.99711        -1.33748        -0.34390
N           7.34379        -1.59709         0.79695
C           6.02458        -1.38032         0.81068
Cl          0.32250         5.32295         1.25178
H          -2.27976         5.92002         0.15043
H           0.46777         2.59214         0.43219
H          -3.34326         2.12647        -1.58743
H          -1.95189         0.24007        -1.33839
H          -0.34890         0.76594        -1.83625
H          -2.95546        -0.53638         2.18197
H          -2.96714         0.61355         0.81397
H          -5.11461        -4.73768        -1.76326
H          -4.22957        -6.42640        -0.13344
H          -2.82451        -5.73257         1.77971
H          -2.22806        -3.32870         2.15302
H           0.94056        -1.06084        -1.99534
H           3.37004        -1.41791        -2.16739
H           3.87258         0.10676         1.83735
H           1.43797         0.44749         2.01272
H           5.47685        -0.24309        -2.34324
H           7.94808        -0.66600        -2.40214
H           9.07733        -1.51689        -0.33314
H           5.51232        -1.62661         1.74675

Br 1.90

