%nprocshared=8
%mem=1600MB
#p b3lyp/cc-pvdz pop=(chelpg,readradii)

 Mol41.log

0  1
C           4.27104        -1.04159         0.42302
C           5.32152        -1.89803         0.02861
C           4.48099         0.04913         1.28331
C           6.63260        -1.68795         0.49198
C           5.78012         0.23718         1.73688
C           6.84409        -0.61728         1.34885
N           3.17613        -1.57082        -0.20387
N           4.80741        -2.87090        -0.80665
N           3.54118        -2.66912        -0.93490
C           1.78547        -1.18877        -0.16538
C           1.52396         0.14873        -0.87961
N           0.20789         0.43787        -1.14907
O           2.44194         0.90490        -1.16820
C          -0.09815         1.70316        -1.85164
C          -1.99792         4.32516         0.16488
C          -0.97177         5.00170         0.82428
C          -1.72945         3.26370        -0.70253
C           0.34880         4.59813         0.60052
C          -0.40476         2.86166        -0.92047
C           0.63569         3.53948        -0.26291
Cl         -3.66909         4.81874         0.42750
C          -2.53110        -1.06740         0.90833
C          -3.07691        -2.01265         0.02088
C          -1.45285        -0.26767         0.53113
C          -2.50728        -2.13088        -1.26092
C          -0.88799        -0.39951        -0.74493
C          -1.42890        -1.33376        -1.63972
C          -4.21223        -2.86731         0.39446
C          -4.90990        -2.92253         1.58990
N          -4.74083        -3.78600        -0.49671
N          -5.87110        -3.89047         1.40891
C          -5.72659        -4.37788         0.13907
H           3.67463         0.72748         1.56170
H           7.44109        -2.35137         0.18114
H           5.99301         1.07439         2.40555
H           7.84746        -0.41928         1.73146
H           1.22496        -2.00806        -0.63216
H           1.44360        -1.11007         0.88009
H           0.77966         1.93876        -2.46727
H          -0.95479         1.50983        -2.51224
H          -1.20403         5.83010         1.49409
H          -2.55394         2.75709        -1.20669
H           1.16179         5.12551         1.10477
H           1.66617         3.22514        -0.43711
H          -2.95339        -0.94580         1.90798
H          -1.04418         0.46980         1.22421
H          -2.92830        -2.86330        -1.94997
H          -0.99108        -1.43572        -2.63531
H          -4.81535        -2.38006         2.52492
H          -6.55683        -4.18463         2.09300
H          -6.36726        -5.16033        -0.26210

Br 1.90

