%nprocshared=8
%mem=1600MB
#p opt freq b3lyp/cc-pvdz

 Mol08.log

0  1
O           3.34416        -2.44496         0.17114
C           2.23192        -1.92331         0.14415
C           1.13016        -2.57592         0.96722
N          -0.09713        -2.81183         0.24603
N          -0.06457        -3.37014        -0.99353
N          -1.25055        -3.54332        -1.41481
C          -2.13682        -3.11138        -0.44285
C          -1.39417        -2.64023         0.63315
C          -2.01097        -2.13460         1.78198
C          -3.38526        -2.12505         1.78825
C          -4.14469        -2.60181         0.69553
C          -3.53156        -3.09898        -0.42829
N           1.99023        -0.78122        -0.54770
C           3.09212        -0.23437        -1.36785
C           3.98320         0.72174        -0.61520
C           5.03643         0.33737         0.12878
S           5.86776         1.72383         0.89091
C           4.69041         2.83006         0.12198
C           3.79224         2.15866        -0.61471
C           0.79277        -0.00531        -0.43888
C          -0.14121        -0.01743        -1.46717
C          -1.28194         0.76060        -1.37918
C          -1.51810         1.56598        -0.26392
C          -0.56811         1.58060         0.75432
C           0.58095         0.80824         0.66527
C          -2.75432         2.38188        -0.16546
C          -2.70902         3.71294         0.24348
N          -3.79200         4.47687         0.34987
C          -4.98352         3.96276         0.05207
C          -5.13316         2.65094        -0.36724
C          -4.00582         1.85242        -0.47471
H           0.90054        -1.95630         1.82182
H           1.54462        -3.50850         1.31580
H          -1.44968        -1.76909         2.61807
H          -3.90169        -1.74641         2.64881
H          -5.21474        -2.57749         0.75727
H          -4.08721        -3.47121        -1.26530
H           3.66552        -1.06969        -1.73296
H           2.64201         0.26430        -2.21429
H           5.37867        -0.65814         0.30000
H           4.76875         3.88227         0.27668
H           3.00508         2.64054        -1.15907
H           0.02275        -0.64614        -2.31991
H          -1.98927         0.74826        -2.18527
H          -0.72915         2.18594         1.62512
H           1.31659         0.84380         1.44552
H          -1.77530         4.18303         0.47658
H          -5.82477         4.61662         0.15364
H          -6.10563         2.26335        -0.59583
H          -4.09548         0.82598        -0.77372

