%nprocshared=8
%mem=1600MB
#p opt freq b3lyp/cc-pvdz

 Mol14.log

0  1
O          -0.94998        -1.43983         0.31413
C          -1.13597        -0.34084         0.81152
C          -2.52782         0.08411         1.26240
N          -3.50224        -0.93980         1.04791
N          -3.90343        -1.71660         2.09451
N          -4.73070        -2.58480         1.68452
C          -4.90975        -2.42479         0.31942
C          -5.71372        -3.12481        -0.57894
C          -5.68559        -2.72443        -1.89239
C          -4.87037        -1.64806        -2.30792
C          -4.07277        -0.95473        -1.42897
C          -4.10992        -1.36725        -0.09463
N          -0.12330         0.56741         0.99190
C          -0.35136         1.92240         1.49949
C          -0.82220         2.91927         0.46629
C          -1.26136         4.24616         0.85300
C          -1.62818         5.02072        -0.17846
S          -1.46094         4.16678        -1.73888
C          -0.87031         2.72314        -0.86199
C           1.22836         0.18322         0.68764
C           2.17690         0.16428         1.70030
C           3.49199        -0.17009         1.42293
C           3.88276        -0.51271         0.13079
C           2.91674        -0.51046        -0.87351
C           1.60483        -0.16282        -0.60142
C           5.29092        -0.88073        -0.16715
C           6.35761        -0.15387         0.35930
C           7.65435        -0.53235         0.05561
N           7.93628        -1.57197        -0.72720
C           6.92541        -2.27434        -1.23566
C           5.59886        -1.96749        -0.98410
H          -2.52371         0.28460         2.32369
H          -2.82672         0.98847         0.74965
H          -6.32259        -3.93978        -0.24325
H          -6.28578        -3.23247        -2.62100
H          -4.87378        -1.36891        -3.34376
H          -3.45023        -0.14708        -1.75788
H          -1.05539         1.89988         2.32152
H           0.58204         2.27077         1.91756
H          -1.29108         4.57826         1.87176
H          -1.98744         6.02460        -0.15638
H          -0.58915         1.85406        -1.41019
H           1.88568         0.38985         2.70797
H           4.20733        -0.19638         2.22156
H           3.19318        -0.76337        -1.87827
H           0.87462        -0.18429        -1.38354
H           6.18303         0.70405         0.97729
H           8.49119         0.01194         0.44254
H           7.18922        -3.10694        -1.85475
H           4.82173        -2.57799        -1.39827

