%nprocshared=8
%mem=1600MB
#p opt freq b3lyp/cc-pvdz

 Mol19.log

0  1
O          -0.78007        -1.41110         0.05100
C          -0.90866        -0.35999         0.65920
C          -2.27836         0.06811         1.17343
N          -3.27306        -0.93800         0.96250
N          -3.65083        -1.73484         2.00264
N          -4.50962        -2.57652         1.60112
C          -4.73547        -2.37639         0.24868
C          -5.58596        -3.03710        -0.63709
C          -5.59729        -2.60314        -1.93972
C          -4.77435        -1.53318        -2.35783
C          -3.93138        -0.87897        -1.49194
C          -3.92993        -1.32384        -0.16735
N           0.14399         0.48270         0.91409
C          -0.03692         1.79615         1.53624
C          -0.55483         2.87778         0.61637
C          -0.93529         4.17968         1.12912
C          -1.36432         5.03198         0.18668
S          -1.33771         4.29004        -1.43871
C          -0.71039         2.77813        -0.71548
C           1.48365         0.07784         0.58471
C           2.32467         0.93801        -0.10680
C           3.63294         0.57062        -0.38057
C           4.13523        -0.66201         0.02719
C           3.27640        -1.51771         0.71850
C           1.97135        -1.15640         0.99723
C           5.52176        -1.05558        -0.25804
C           6.63563        -0.25754        -0.31875
N           7.68175        -1.06119        -0.61093
N           7.30830        -2.35113        -0.74633
C           6.01345        -2.36237        -0.53496
H          -2.23792         0.23581         2.23913
H          -2.58347         0.99095         0.69946
H          -6.19850        -3.84875        -0.29999
H          -6.23348        -3.08027        -2.65866
H          -4.80712        -1.22924        -3.38612
H          -3.29905        -0.08073        -1.82425
H          -0.69561         1.71485         2.39270
H           0.92479         2.09265         1.93086
H          -0.87909         4.43760         2.16798
H          -1.69858         6.03747         0.30770
H          -0.49724         1.94133        -1.34208
H           1.96331         1.88806        -0.44647
H           4.25536         1.24075        -0.94158
H           3.63643        -2.46818         1.06085
H           1.33162        -1.83556         1.52050
H           6.75133         0.78998        -0.15968
H           5.46333        -3.27264        -0.60015
H           8.63253        -0.81765        -0.72336

