%nprocshared=8
%mem=1600MB
#p opt freq b3lyp/cc-pvdz

 Mol13.log

0  1
O           1.23119        -1.23731        -0.59344
C           1.56677        -0.12510        -0.96860
C           3.03796         0.20101        -1.19715
N           3.87635        -0.93973        -1.00012
N           4.27887        -1.67162        -2.07835
N           4.96403        -2.66253        -1.68494
C           5.03779        -2.63657        -0.30105
C           5.67525        -3.49836         0.59037
C           5.57356        -3.20679         1.92857
C           4.84854        -2.07937         2.37496
C           4.21551        -1.22611         1.50280
C           4.32713        -1.52883         0.14339
N           0.66033         0.87907        -1.20997
C           1.07815         2.25175        -1.51000
C           1.53663         3.05774        -0.31695
C           2.13949         4.36575        -0.48260
C           2.48324         4.95596         0.67172
S           2.08818         3.93330         2.08226
C           1.44104         2.68840         0.97270
C          -0.74593         0.59898        -1.16848
C          -1.26655        -0.49360        -1.85526
C          -2.62697        -0.73821        -1.83297
C          -3.48662         0.11743        -1.15499
C          -2.97225         1.21511        -0.48095
C          -1.60457         1.44661        -0.48057
N          -4.88517        -0.15887        -1.18555
S          -5.81355        -0.49984         0.23183
O          -5.38988         0.48950         1.47347
O          -7.36718        -0.46766        -0.32340
C          -5.32055        -2.18046         0.69632
C          -5.47026        -2.57950         2.13580
C          -4.10489        -2.36718         1.55889
H           3.18717         0.52110        -2.21786
H           3.35225         1.00262        -0.54364
H           6.21792        -4.34914         0.23084
H           6.04588        -3.84028         2.65298
H           4.78919        -1.88897         3.42902
H           3.65909        -0.38057         1.85421
H           1.86362         2.24282        -2.25601
H           0.23595         2.74476        -1.97489
H           2.29601         4.82047        -1.44050
H           2.93869         5.90939         0.81627
H           1.02981         1.78825         1.37150
H          -0.61296        -1.16081        -2.37526
H          -3.03266        -1.58657        -2.34680
H          -3.63010         1.86150         0.06275
H          -1.21627         2.28478         0.06144
H          -5.47290         0.22912        -1.89354
H          -5.56181        -2.85240        -0.09907
H          -5.82885        -1.83865         2.82203
H          -5.82303        -3.57454         2.31951
H          -3.48358        -3.21040         1.33173
H          -3.57619        -1.49040         1.87364

