%nprocshared=8
%mem=1600MB
#p opt freq b3lyp/cc-pvdz

 Mol11.log

0  1
O           1.20812        -1.45325        -0.06963
C           1.33448        -0.42397        -0.71265
C           2.71072         0.02609        -1.18837
N           3.72866        -0.92514        -0.86791
N           4.16428        -1.79060        -1.82816
N           5.02938        -2.57246        -1.33188
C           5.20098        -2.26034         0.00757
C           6.03540        -2.82491         0.97127
C           5.98847        -2.28985         2.23516
C           5.12462        -1.21383         2.53844
C           4.29705        -0.65357         1.59483
C           4.35423        -1.20176         0.31100
N           0.26787         0.37764        -1.04334
C           0.44205         1.68533        -1.68121
C           0.87174         2.79857        -0.75413
C           1.23028         4.10632        -1.26749
C           1.58013         4.98633        -0.31781
S           1.49805         4.26615         1.31548
C           0.96310         2.72268         0.58535
C          -1.07059        -0.06240        -0.77230
C          -1.97870         0.80300        -0.17713
C          -3.28851         0.40113         0.03663
C          -3.70706        -0.86908        -0.33514
C          -2.79484        -1.72591        -0.94355
C          -1.48857        -1.33192        -1.15975
C          -5.10458        -1.35277        -0.14324
O          -5.57675        -2.22941        -0.86403
N          -5.81686        -0.79461         0.86939
C          -7.17120        -1.17167         1.14622
C          -8.26735        -0.65273         0.26750
C          -8.10222        -0.10926         1.66228
H           2.71237         0.12544        -2.26376
H           2.96014         0.98737        -0.76085
H           6.68036        -3.64275         0.72078
H           6.61031        -2.69083         3.01086
H           5.11351        -0.82822         3.53944
H           3.63601         0.15301         1.84032
H           1.15239         1.60714        -2.49526
H          -0.50263         1.94332        -2.13902
H           1.21707         4.34811        -2.31162
H           1.88339         6.00178        -0.43726
H           0.74895         1.88716         1.21340
H          -1.67336         1.78586         0.11983
H          -3.97706         1.09942         0.47132
H          -3.12500        -2.69645        -1.25308
H          -0.79460        -2.00879        -1.61064
H          -5.34266        -0.25232         1.55040
H          -7.28574        -2.16666         1.53116
H          -7.98253        -0.02541        -0.55310
H          -9.09191        -1.30448         0.05688
H          -8.81310        -0.38337         2.41700
H          -7.71685         0.88693         1.76721

