%nprocshared=8
%mem=1600MB
#p opt freq b3lyp/cc-pvdz

 Mol16.log

0  1
C           5.81098         0.35494         3.05560
O           5.11024         0.11224         1.82183
C           5.71957        -0.54553         0.80834
N           6.98558        -0.87118         0.94962
C           7.62458        -1.51791        -0.03152
C           6.99283        -1.85823        -1.20423
C           5.64945        -1.51334        -1.34795
C           4.96691        -0.84968        -0.34128
C           3.52847        -0.50911        -0.48825
C           2.64132        -1.44438        -1.02000
C           1.30553        -1.14307        -1.22029
C           0.81665         0.10942        -0.87406
C           1.68654         1.04632        -0.33061
C           3.02491         0.74203        -0.14402
N          -0.55662         0.45737        -1.11924
C          -0.82715         1.74065        -1.77198
C          -1.31258         2.83862        -0.85382
C          -1.79539         4.10005        -1.38125
C          -2.17890         4.97334        -0.43841
S          -1.97623         4.30370         1.20592
C          -1.34622         2.78978         0.48946
C          -1.56314        -0.40133        -0.75470
O          -1.36364        -1.42240        -0.11528
C          -2.97810        -0.03118        -1.18580
N          -3.92675        -1.04920        -0.85408
N          -4.35596        -1.90705        -1.82298
N          -5.15928        -2.74819        -1.31838
C          -5.29216        -2.48487         0.03555
C          -6.05710        -3.12009         1.01325
C          -5.98598        -2.62055         2.29022
C          -5.16534        -1.51072         2.59328
C          -4.40633        -0.88110         1.63633
C          -4.48863        -1.39299         0.33873
H           6.67356         0.97909         2.88442
H           5.09507         0.85332         3.68569
H           6.12772        -0.57616         3.49837
H           8.65320        -1.75218         0.14854
H           7.51800        -2.36934        -1.98491
H           5.13371        -1.75404        -2.25683
H           2.99108        -2.42757        -1.26845
H           0.64601        -1.88706        -1.61374
H           1.32668         2.01477        -0.04621
H           3.67383         1.47520         0.28652
H           0.09150         2.05216        -2.24873
H          -1.54446         1.60593        -2.57264
H          -1.84173         4.31522        -2.43030
H          -2.56790         5.95781        -0.56831
H          -1.03883         1.99107         1.12657
H          -3.27354         0.90601        -0.73465
H          -3.01965         0.08449        -2.25837
H          -6.66943        -3.96266         0.76273
H          -6.55457        -3.07577         3.07684
H          -5.13190        -1.15551         3.60498
H          -3.77448        -0.05144         1.88112

