%nprocshared=8
%mem=1600MB
#p opt freq b3lyp/cc-pvdz

 Mol12.log

0  1
C          -5.53778        -2.53285         1.18422
S          -6.15782        -0.94677         0.50384
O          -5.88657         0.21704         1.63222
O          -7.67682        -1.14823        -0.11130
N          -5.18572        -0.70481        -0.90373
C          -3.81691        -0.30742        -0.84741
C          -2.86639        -1.13250        -1.43688
C          -1.53022        -0.77624        -1.43428
C          -1.12607         0.39852        -0.80917
C          -2.07597         1.21458        -0.20937
C          -3.41965         0.87318        -0.23610
N           0.25541         0.78987        -0.81725
C           0.58136         2.12819        -1.33936
C           1.22389         3.06085        -0.33952
C           0.89439         3.09368         1.07169
C           1.55631         4.03674         1.76052
S           2.65490         4.97806         0.71349
C           2.14067         3.98551        -0.67892
C           1.20921        -0.10950        -0.41600
O           0.92271        -1.21169         0.03177
C           2.67019         0.30766        -0.50295
N           3.54191        -0.82325        -0.63686
N           4.06809        -1.10890        -1.86333
N           4.81855        -2.12731        -1.77500
C           4.82015        -2.57099        -0.46292
C           5.49329        -3.63850         0.13221
C           5.30215        -3.82940         1.47763
C           4.44956        -2.97995         2.21990
C           3.77909        -1.93031         1.64089
C           3.98805        -1.73576         0.27251
H          -4.48885        -2.40976         1.39195
H          -6.09511        -2.71756         2.08663
H          -5.72087        -3.28699         0.43986
H          -5.76091        -0.47030        -1.68576
H          -3.18185        -2.04464        -1.90297
H          -0.80467        -1.41919        -1.88487
H          -1.77901         2.12012         0.28000
H          -4.14737         1.49883         0.23783
H           1.20921         2.04151        -2.21795
H          -0.35135         2.55309        -1.67804
H           0.19820         2.42119         1.52808
H           1.49179         4.26071         2.80122
H           2.56206         4.17178        -1.64209
H           2.86268         0.94167        -1.34989
H           2.92599         0.86452         0.38960
H           6.12963        -4.27320        -0.45077
H           5.79727        -4.63615         1.98093
H           4.31713        -3.17112         3.26715
H           3.10835        -1.31434         2.20346

