%nprocshared=8
%mem=1600MB
#p opt freq b3lyp/cc-pvdz

 Mol15.log

0  1
O           0.92770        -1.40322        -0.01695
C           1.10418        -0.38154        -0.66158
C           2.49035        -0.03665        -1.19396
N           3.44238        -1.07177        -0.93274
N           3.78633        -1.93432        -1.93121
N           4.60876        -2.79052        -1.48660
C           4.84264        -2.53330        -0.14519
C           5.66421        -3.18443         0.77423
C           5.69376        -2.68707         2.05376
C           4.91702        -1.56370         2.41629
C           4.10261        -0.91833         1.51702
C           4.08226        -1.42834         0.21628
N           0.09229         0.50180        -0.94356
C           0.33641         1.78940        -1.59746
C           0.90107         2.86776        -0.70166
C           1.34177         4.13866        -1.24319
C           1.80753         4.99209        -0.31945
S           1.74385         4.29003         1.32269
C           1.04915         2.79201         0.63258
C          -1.26564         0.16744        -0.61191
C          -2.06756         1.08366         0.05219
C          -3.39515         0.78563         0.32046
C          -3.94667        -0.43350        -0.05697
C          -3.13152        -1.34319        -0.73037
C          -1.81016        -1.04961        -1.00684
C          -5.36056        -0.77811         0.22946
C          -6.07964        -0.19830         1.27415
C          -7.39907        -0.56777         1.47520
C          -7.97619        -1.51293         0.64043
C          -7.19240        -2.05637        -0.36346
N          -5.92779        -1.69696        -0.55790
H           2.45441         0.07974        -2.26683
H           2.83499         0.89459        -0.76586
H           6.24189        -4.03702         0.47926
H           6.30912        -3.15434         2.79692
H           4.96286        -1.21031         3.42817
H           3.50549        -0.07773         1.80748
H           0.99408         1.65553        -2.44811
H          -0.60863         2.12061        -2.00446
H           1.29903         4.37477        -2.28785
H           2.18751         5.97825        -0.46258
H           0.79579         1.98076         1.27751
H          -1.66793         2.02929         0.35927
H          -3.99547         1.52482         0.81297
H          -3.54800        -2.27809        -1.04215
H          -1.19891        -1.76962        -1.50911
H          -5.61512         0.50821         1.93024
H          -7.96368        -0.13171         2.27635
H          -8.99343        -1.82377         0.76733
H          -7.58155        -2.79722        -1.03195

