%nprocshared=8
%mem=1600MB
#p opt freq b3lyp/cc-pvdz

 Mol26.log

0  1
O           0.98423        -1.21779        -0.38114
C           1.17124        -0.03976        -0.64423
C           2.57471         0.47069        -0.95666
N           3.53568        -0.58949        -0.96915
N           3.88948        -1.16152        -2.15379
N           4.70179        -2.11163        -1.94048
C           4.91636        -2.21911        -0.57572
C           5.71993        -3.09672         0.15086
C           5.73299        -2.95373         1.51660
C           4.95972        -1.95599         2.15132
C           4.16339        -1.08857         1.44260
C           4.15692        -1.24080         0.05361
N           0.14722         0.87165        -0.66869
C           0.32081         2.30925        -0.89409
C           0.11706         3.17124         0.36389
C           0.56639         4.62418         0.08522
C           2.07408         4.61940         0.42769
O           2.31787         3.36404         1.10774
C           1.05969         2.78397         1.50043
C          -1.19851         0.40748        -0.47359
C          -2.07953         0.38877        -1.54468
C          -3.39022        -0.02181        -1.36513
C          -3.84659        -0.42960        -0.11298
C          -2.94761        -0.41716         0.95275
C          -1.63827        -0.00277         0.77574
C          -5.25029        -0.87238         0.07969
C          -6.32234        -0.18066        -0.48030
C          -7.61603        -0.63113        -0.27154
C          -7.80959        -1.76550         0.49910
N          -6.79191        -2.43486         1.03676
C          -5.54999        -2.00629         0.83307
H           2.59225         0.91076        -1.94285
H           2.87538         1.22963        -0.24580
H           6.29723        -3.84720        -0.35032
H           6.33440        -3.60586         2.11860
H           4.99599        -1.87834         3.22074
H           3.57727        -0.33933         1.93556
H           1.30392         2.49400        -1.29479
H          -0.38704         2.62572        -1.64986
H          -0.91842         3.12279         0.67341
H           0.38073         4.92534        -0.93853
H           0.02870         5.31159         0.72589
H           2.70885         4.64201        -0.44435
H           2.34941         5.43494         1.08021
H           0.73309         3.20653         2.44361
H           1.20653         1.72484         1.62545
H          -1.73485         0.67207        -2.52034
H          -4.05061        -0.05553        -2.20981
H          -3.27520        -0.71773         1.92877
H          -0.95562        -0.01439         1.60151
H          -6.14689         0.70705        -1.05665
H          -8.45425        -0.11065        -0.68959
H          -8.78968        -2.14967         0.69255
H          -4.76975        -2.59574         1.26941

