%nprocshared=8
%mem=1600MB
#p opt freq b3lyp/cc-pvdz

 Mol21.log

0  1
O           0.75950        -1.40668        -0.00202
C           0.89553        -0.37200        -0.63630
C           2.26562         0.02704        -1.17251
N           3.25246        -0.98402        -0.94521
N           3.63507        -1.79040        -1.97578
N           4.49029        -2.63006        -1.56188
C           4.70885        -2.41784        -0.21025
C           5.55362        -3.07146         0.68632
C           5.55893        -2.62513         1.98472
C           4.73521        -1.55009         2.38839
C           3.89768        -0.90317         1.51202
C           3.90258        -1.36031         0.19153
N          -0.14719         0.47833        -0.90135
C           0.04158         1.77422        -1.55609
C           0.58068         2.87187        -0.66772
C           0.96177         4.15977        -1.21455
C           1.41081         5.02972        -0.29805
S           1.40434         4.32385         1.34379
C           0.75613         2.80044         0.66330
C          -1.49107         0.09245        -0.56140
C          -2.30469         0.95421         0.16006
C          -3.61878         0.60968         0.43252
C          -4.14527        -0.60575         0.00657
C          -3.31684        -1.46479        -0.71471
C          -2.00913        -1.11942        -1.00088
C          -5.52826        -0.99418         0.29730
C          -6.45201        -0.40512         1.10687
N          -7.58599        -1.18443         1.01885
C          -7.30984        -2.20988         0.16905
N          -6.09211        -2.12598        -0.27799
H           2.21791         0.16766        -2.24181
H           2.58472         0.95844        -0.72510
H           6.16651        -3.88730         0.36011
H           6.19057        -3.09642         2.71154
H           4.76271        -1.23673         3.41403
H           3.26346        -0.10209         1.83345
H           0.68992         1.66675        -2.41785
H          -0.92153         2.07203        -1.94619
H           0.89083         4.39514        -2.25786
H           1.74946         6.03008        -0.44637
H           0.54699         1.97900         1.31109
H          -1.92223         1.89290         0.50816
H          -4.22937         1.30169         0.97995
H          -3.71114        -2.40069        -1.05265
H          -1.38702        -1.79823        -1.54634
H          -6.40820         0.45954         1.72556
H          -8.01488        -2.96727        -0.08075
H          -8.44042        -1.02827         1.49289

