%nprocshared=8
%mem=1600MB
#p opt freq b3lyp/cc-pvdz

 Mol25.log

0  1
O           1.22707        -1.25358        -0.31922
C           1.35245        -0.08659        -0.66200
C           2.73273         0.47393        -0.98278
N           3.76048        -0.51938        -0.90595
N           4.34530        -0.96224        -2.05614
N           5.22161        -1.83455        -1.77729
C           5.25227        -2.01634        -0.40413
C           6.04361        -2.85307         0.38218
C           5.84926        -2.80839         1.74053
C           4.87983        -1.95160         2.30893
C           4.09319        -1.12766         1.54063
C           4.30232        -1.17378         0.15968
N           0.29141         0.76989        -0.76950
C           0.42914         2.19576        -1.11513
C           0.64028         3.13514         0.07625
C           0.97306         4.57289        -0.37615
C           0.61886         5.48300         0.82526
C          -0.22921         4.61060         1.78881
C          -0.57539         3.33737         0.99713
C          -1.03339         0.25242        -0.56270
C          -1.94119         0.25175        -1.61158
C          -3.23016        -0.21991        -1.42303
C          -3.63687        -0.71411        -0.18572
C          -2.70938        -0.72398         0.85558
C          -1.42348        -0.24629         0.67138
C          -5.01629        -1.22328         0.01672
C          -6.12943        -0.54574        -0.47650
C          -7.39843        -1.05930        -0.26166
C          -7.52668        -2.24153         0.44821
N          -6.46946        -2.89774         0.92207
C          -5.25122        -2.40831         0.71230
H           2.75650         0.84848        -1.99471
H           2.96569         1.29497        -0.31692
H           6.76858        -3.49897        -0.07041
H           6.43248        -3.43382         2.38702
H           4.75126        -1.95408         3.37402
H           3.34325        -0.50249         1.98071
H           1.24146         2.31607        -1.81870
H          -0.46876         2.49035        -1.63963
H           1.46381         2.76038         0.68099
H           2.00675         4.67780        -0.68537
H           0.35765         4.83033        -1.23456
H           1.51340         5.84398         1.31823
H           0.06936         6.35670         0.49716
H           0.35129         4.35019         2.66773
H          -1.11483         5.12663         2.13790
H          -1.46481         3.49774         0.39294
H          -0.77120         2.48969         1.63923
H          -1.63647         0.59834        -2.58008
H          -3.91025        -0.23371        -2.25259
H          -2.99790        -1.09053         1.82133
H          -0.72036        -0.27384         1.47831
H          -6.00432         0.37924        -1.00538
H          -8.26735        -0.55072        -0.62860
H          -8.48546        -2.67529         0.64378
H          -4.43698        -2.98846         1.09579

