%nprocshared=8
%mem=1600MB
#p opt freq b3lyp/cc-pvdz

 Mol28.log

0  1
Cl         -3.16915         5.85408        -0.52128
C          -2.35034         4.37271         0.11311
C          -2.38221         4.11664         1.46986
C          -1.75232         2.97525         1.93822
C          -1.10397         2.11387         1.06160
C          -1.07838         2.38452        -0.30113
C          -1.71664         3.53006        -0.77334
C          -0.36490         1.49387        -1.30893
N           0.04982         0.18143        -0.80946
C          -0.84328        -0.84486        -0.62069
O          -0.53029        -1.90402        -0.10088
C          -2.27325        -0.61175        -1.09418
N          -3.08691        -1.77769        -0.94358
N          -3.33338        -2.56860        -2.02726
N          -4.03471        -3.56339        -1.67408
C          -4.28010        -3.47912        -0.31263
C          -4.99967        -4.32148         0.53381
C          -5.07280        -3.96841         1.85889
C          -4.43844        -2.79996         2.33690
C          -3.72511        -1.96590         1.50956
C          -3.65996        -2.33049         0.16242
C           1.44594        -0.02196        -0.53673
C           2.16175         0.92386         0.18422
C           3.52187         0.76170         0.39871
C           4.19718        -0.35309        -0.08781
C           3.46482        -1.29922        -0.80507
C           2.11091        -1.13633        -1.03522
C           5.65180        -0.52994         0.14802
C           6.22799        -0.29517         1.39480
C           7.59146        -0.47300         1.56639
C           8.35067        -0.88649         0.48426
N           7.80993        -1.11236        -0.71134
C           6.50234        -0.93909        -0.87747
H          -2.88433         4.78638         2.13684
H          -1.76462         2.75693         2.98809
H          -0.61826         1.23751         1.44283
H          -1.71911         3.76192        -1.82052
H          -0.99254         1.37570        -2.18343
H           0.52927         1.99323        -1.65276
H          -2.71786         0.21544        -0.55806
H          -2.27770        -0.36895        -2.14643
H          -5.46991        -5.20470         0.15124
H          -5.61365        -4.58490         2.54924
H          -4.51369        -2.56326         3.38056
H          -3.23439        -1.09110         1.88604
H           1.67032         1.79166         0.57669
H           4.05873         1.51877         0.93693
H           3.95235        -2.17952        -1.17591
H           1.57009        -1.88527        -1.57380
H           5.61407         0.00318         2.22243
H           8.05279        -0.30401         2.51868
H           9.40634        -1.04159         0.56835
H           6.12453        -1.11753        -1.86353

