%nprocshared=8
%mem=1600MB
#p opt freq b3lyp/cc-pvdz

 Mol20.log

0  1
C          -8.74810        -0.74089         0.94772
N          -7.42789        -0.94469         0.38416
C          -7.05851        -1.90454        -0.50441
N          -5.79541        -1.81452        -0.80622
C          -5.29180        -0.74290        -0.08698
C          -6.30005        -0.20051         0.65435
C          -3.88141        -0.35728        -0.18667
C          -2.98980        -1.15700        -0.90065
C          -1.65506        -0.81184        -1.00992
C          -1.17560         0.33848        -0.39823
C          -2.05232         1.13963         0.31815
C          -3.39105         0.79787         0.41603
N           0.20330         0.72708        -0.54992
C           0.47070         2.00243        -1.23312
C           1.22094         3.02252        -0.40794
C           1.05728         3.19067         1.02251
C           1.78872         4.19061         1.53885
S           2.75388         5.02390         0.28766
C           2.08668         3.90634        -0.93655
C           1.18653        -0.14203        -0.16591
O           0.94524        -1.20147         0.39853
C           2.63463         0.25365        -0.41675
N           3.48374        -0.88984        -0.60489
N           3.95990        -1.15349        -1.85589
N           4.72053        -2.16800        -1.81537
C           4.78237        -2.62925        -0.51137
C           5.49017        -3.69909         0.03839
C           5.36211        -3.90878         1.38812
C           4.53595        -3.07686         2.17915
C           3.83067        -2.02656         1.64537
C           3.97686        -1.81092         0.27152
H          -8.72328        -0.84302         2.02389
H          -9.12486         0.23990         0.69212
H          -9.42116        -1.48367         0.54678
H          -7.74026        -2.62718        -0.88911
H          -6.32005         0.61624         1.33748
H          -3.35625        -2.04586        -1.37093
H          -0.98285        -1.44441        -1.55241
H          -1.69975         2.03267         0.79549
H          -4.04962         1.44239         0.96570
H           0.99472         1.82833        -2.16588
H          -0.49576         2.40282        -1.49965
H           0.42323         2.56563         1.61585
H           1.84546         4.51051         2.55467
H           2.39370         3.99798        -1.95497
H           2.74973         0.85861        -1.29745
H           2.98284         0.83417         0.42883
H           6.10370        -4.32101        -0.58170
H           5.88534        -4.71828         1.85769
H           4.44999        -3.28462         3.22813
H           3.17257        -1.42995         2.24157

