%nprocshared=8
%mem=1600MB
#p opt freq b3lyp/cc-pvdz

 Mol24.log

0  1
O           1.01737        -0.55076         2.14188
C           1.41503         0.29201         1.33852
C           2.88024         0.70523         1.41829
N           3.68201         0.04283         0.41475
N           4.36267         0.77214        -0.51577
N           5.05172        -0.00552        -1.24427
C           4.86245        -1.30863        -0.81436
C           5.40375        -2.50707        -1.28108
C           5.02765        -3.65777        -0.63407
C           4.12703        -3.62275         0.45554
C           3.58550        -2.44886         0.92236
C           3.97935        -1.28174         0.25838
N           0.61515         0.84104         0.38970
C           1.05106         1.90729        -0.53465
C           0.78863         3.31505        -0.01982
C           1.22729         4.48697        -0.94376
C          -0.08174         5.23134        -0.57121
C          -0.65734         3.89220        -0.04038
C          -0.74108         0.37878         0.27786
C          -1.67240         0.65195         1.26834
C          -2.97935         0.21651         1.13335
C          -3.38746        -0.49362         0.00459
C          -2.44086        -0.76489        -0.98114
C          -1.12906        -0.34041        -0.84216
C          -4.79175        -0.95279        -0.14023
C          -5.87058        -0.12523         0.16438
C          -7.16434        -0.59757         0.01175
C          -7.35132        -1.89076        -0.44746
N          -6.32741        -2.69034        -0.73923
C          -5.08579        -2.23928        -0.58892
H           3.02990         1.76411         1.29373
H           3.21830         0.41571         2.40147
H           6.08357        -2.51220        -2.10896
H           5.41660        -4.60390        -0.95482
H           3.85570        -4.54623         0.92896
H           2.88791        -2.42695         1.73440
H           2.10061         1.78607        -0.75319
H           0.52386         1.75839        -1.46708
H           1.22368         3.43051         0.96797
H           2.16482         4.97299        -0.71188
H           1.24419         4.19273        -1.98750
H           0.06999         5.95570         0.21912
H          -0.61896         5.71153        -1.37715
H          -1.28029         3.39619        -0.77486
H          -1.19244         3.91913         0.89835
H          -1.36869         1.17988         2.14946
H          -3.68075         0.41149         1.92121
H          -2.72903        -1.30002        -1.86492
H          -0.40758        -0.56951        -1.60235
H          -5.69894         0.87939         0.49928
H          -8.00734         0.02492         0.23572
H          -8.33106        -2.29896        -0.58575
H          -4.30142        -2.93159        -0.81727

