%nprocshared=8
%mem=1600MB
#p opt freq b3lyp/cc-pvdz

 Mol29.log

0  1
F           3.18450         4.74321         1.93080
C           2.49678         3.88936         1.11901
C           1.82344         2.83113         1.68332
C           1.12164         1.95818         0.86410
C           1.09667         2.14504        -0.51326
C           1.79282         3.22204        -1.05733
C           2.48747         4.09235        -0.24354
Cl          3.37599         5.47367        -0.95417
C           0.32240         1.23503        -1.45723
N          -0.15593        -0.01717        -0.86984
C           0.68108        -1.08095        -0.63111
O           0.31740        -2.08447        -0.03981
C           2.11273        -0.96293        -1.14104
N           2.85546        -2.16821        -0.94455
N           3.02640        -3.02731        -1.99107
N           3.67260        -4.04497        -1.60106
C           3.95552        -3.90774        -0.25115
C           4.64190        -4.75026         0.62217
C           4.76922        -4.33628         1.92537
C           4.22045        -3.10760         2.35558
C           3.54008        -2.27285         1.50147
C           3.41955        -2.69971         0.17671
C          -1.55809        -0.12532        -0.57139
C          -2.21179         0.90186         0.09509
C          -3.57584         0.82911         0.33244
C          -4.31726        -0.27488        -0.07616
C          -3.64696        -1.30295        -0.73938
C          -2.28933        -1.23002        -0.99242
C          -5.77617        -0.35591         0.18410
C          -6.32250        -0.01229         1.41902
C          -7.69131        -0.10341         1.61420
C          -8.48576        -0.54090         0.56733
N          -7.97353        -0.87042        -0.61668
C          -6.66071        -0.78055        -0.80564
H           1.85184         2.70233         2.74589
H           0.59375         1.13648         1.30474
H           1.79770         3.38904        -2.11673
H          -0.54782         1.76045        -1.82279
H           0.93133         1.02808        -2.32829
H           2.11095        -0.77500        -2.20441
H           2.61876        -0.13893        -0.65655
H           5.04703        -5.67947         0.27584
H           5.28769        -4.95004         2.63499
H           4.33594        -2.82368         3.38362
H           3.11394        -1.35123         1.84322
H          -1.66973         1.76497         0.42671
H          -4.06347         1.64694         0.82675
H          -4.18662        -2.17629        -1.04936
H          -1.79767        -2.04003        -1.48802
H          -5.68277         0.30266         2.22054
H          -8.13049         0.14987         2.55821
H          -9.54714        -0.63182         0.67087
H          -6.30598        -1.04078        -1.78205

