%nprocshared=8
%mem=1600MB
#p opt freq b3lyp/cc-pvdz

 Mol35.log

0  1
Cl         -3.53044         5.80019        -0.59665
C          -2.69685         4.34074         0.07024
C          -2.76893         4.08770         1.42595
C          -2.12694         2.96363         1.91914
C          -1.42769         2.11667         1.06799
C          -1.36216         2.38404        -0.29403
C          -2.01244         3.51217        -0.79135
C          -0.59282         1.50894        -1.27425
N          -0.15392         0.21326        -0.75412
C          -1.01579        -0.84068        -0.58262
O          -0.68246        -1.88548        -0.04638
C          -2.43868        -0.65741        -1.09762
N          -3.22581        -1.84173        -0.94422
N          -3.44498        -2.64757        -2.02213
N          -4.12939        -3.65356        -1.66651
C          -4.39039        -3.56117        -0.30862
C          -5.10132        -4.40973         0.53897
C          -5.19590        -4.04496         1.85949
C          -4.59085        -2.85883         2.33209
C          -3.88601        -2.01873         1.50373
C          -3.79895        -2.39533         0.16106
C           1.24374         0.04954        -0.45749
C           1.90632         0.98061         0.32712
C           3.26803         0.85435         0.55909
C           3.99429        -0.20763         0.02936
C           3.31624        -1.13235        -0.76760
C           1.96158        -1.00546        -1.00891
C           5.43812        -0.35378         0.33803
C           5.92757        -0.13401         1.58385
C           7.31910        -0.24124         1.89897
C           8.16631        -0.58169         0.91384
N           7.68751        -0.81701        -0.34376
C           6.36387        -0.73913        -0.72292
O           6.05634        -0.99148        -1.89262
H          -3.31027         4.74630         2.07305
H          -2.16973         2.74759         2.96874
H          -0.93314         1.25379         1.46793
H          -1.98457         3.74130        -1.83875
H          -1.19011         1.36868        -2.16696
H           0.29679         2.03278        -1.59250
H          -2.92008         0.16824        -0.59182
H          -2.42045        -0.43687        -2.15474
H          -5.54907        -5.30637         0.16058
H          -5.73126        -4.66562         2.55047
H          -4.68197        -2.61327         3.37247
H          -3.41688        -1.13050         1.87610
H           1.37568         1.80914         0.75232
H           3.76590         1.60283         1.14487
H           3.85486        -1.93817        -1.21847
H           1.46032        -1.73394        -1.61116
H           5.24643         0.11807         2.37325
H           7.67042        -0.06063         2.89250
H           9.22216        -0.68942         1.04717
H           8.31084        -1.07280        -1.07590

