%nprocshared=8
%mem=1600MB
#p opt freq b3lyp/cc-pvdz

 Mol33.log

0  1
C          -4.46228         4.40227        -1.12069
C          -3.09406         3.91680        -0.70732
C          -2.20058         4.76956        -0.07061
C          -0.94835         4.30208         0.27573
C          -0.54372         3.01293         0.01492
C          -1.43253         2.14681        -0.61720
C          -2.69563         2.60665        -0.96880
C          -1.02761         0.72643        -0.97023
N          -0.37137        -0.02455         0.11698
C          -1.05886        -0.56730         1.16019
O          -0.50804        -1.16418         2.08142
C          -2.57821        -0.46211         1.18781
N          -3.19975        -1.43331         0.31488
N          -3.97202        -1.02718        -0.73398
N          -4.47509        -2.04063        -1.30944
C          -4.05946        -3.18437        -0.64868
C          -4.34776        -4.52872        -0.88881
C          -3.78452        -5.45016        -0.04192
C          -2.94607        -5.04774         1.02371
C          -2.65316        -3.72754         1.26838
C          -3.23662        -2.79634         0.40190
C           1.05047        -0.22512         0.04167
C           1.58748        -0.93349        -1.02350
C           2.95773        -1.10838        -1.12730
C           3.82011        -0.59085        -0.16300
C           3.26568         0.10515         0.91041
C           1.89711         0.28797         1.01355
C           5.28806        -0.78148        -0.27203
C           5.96448        -0.60344        -1.47707
C           7.33621        -0.79253        -1.52994
C           8.00365        -1.15347        -0.37131
N           7.36625        -1.32807         0.78460
C           6.04967        -1.15034         0.83556
Cl          0.20364         5.42915         1.10362
H          -5.20153         3.61682        -1.02617
H          -4.78295         5.23975        -0.51457
H          -4.45933         4.72686        -2.15641
H          -2.47529         5.78024         0.15423
H           0.43765         2.69021         0.29291
H          -3.38533         1.93341        -1.44389
H          -1.89208         0.18530        -1.32032
H          -0.32476         0.75438        -1.78925
H          -2.87340        -0.65263         2.20814
H          -2.93637         0.50893         0.89378
H          -4.98432        -4.81307        -1.70210
H          -3.97597        -6.49530        -0.18418
H          -2.52229        -5.80178         1.65796
H          -2.00147        -3.42688         2.06305
H           0.93648        -1.36404        -1.75972
H           3.35334        -1.67694        -1.94646
H           3.90674         0.52444         1.66097
H           1.48774         0.81341         1.85203
H           5.42698        -0.30316        -2.35563
H           7.87576        -0.65479        -2.44545
H           9.06291        -1.30659        -0.36077
H           5.58627        -1.32411         1.78519

