%nprocshared=8
%mem=1600MB
#p opt freq b3lyp/cc-pvdz

 Mol39.log

0  1
Cl         -2.78982         6.00281        -0.55759
C          -2.06811         4.48257         0.10113
C          -2.17827         4.21749         1.45238
C          -1.62156         3.04685         1.93966
C          -0.96739         2.16538         1.08713
C          -0.86258         2.44483        -0.26957
C          -1.42738         3.62077        -0.76102
C          -0.14155         1.53377        -1.25389
N           0.26048         0.22711        -0.73074
C          -0.62378        -0.81050        -0.55745
O          -0.29610        -1.86770        -0.04353
C          -2.05317        -0.58782        -1.03331
N          -2.84760        -1.77262        -0.93513
N          -3.11148        -2.49543        -2.06246
N          -3.80312        -3.51299        -1.75982
C          -4.02536        -3.51472        -0.39186
C          -4.72817        -4.41159         0.41162
C          -4.78082        -4.14239         1.75711
C          -4.14174        -3.00381         2.29694
C          -3.44436        -2.11697         1.51212
C          -3.40067        -2.39550         0.14377
C           1.64653         0.02652        -0.42814
C           2.33805         0.88711         0.41066
C           3.68946         0.68673         0.63196
C           4.33204        -0.38194         0.01423
N           3.64832        -1.20524        -0.78914
C           2.35669        -1.01599        -1.01008
C           5.75120        -0.67200         0.18594
C           6.69774        -0.00114         0.91899
N           7.85965        -0.66398         0.75481
N           7.72195        -1.74276        -0.05358
C           6.45881        -1.75722        -0.40137
H          -2.68425         4.90282         2.10030
H          -1.69625         2.82031         2.98519
H          -0.54098         1.26538         1.48407
H          -1.36741         3.86099        -1.80463
H          -0.75746         1.40731        -2.13557
H           0.76075         2.02347        -1.59164
H          -2.51357         0.21170        -0.46819
H          -2.05829        -0.30508        -2.07519
H          -5.20133        -5.27128        -0.01799
H          -5.30797        -4.80328         2.41625
H          -4.19925        -2.83391         3.35463
H          -2.94661        -1.26813         1.93541
H           1.83549         1.70532         0.88684
H           4.22650         1.35051         1.27859
H           1.87207        -1.71844        -1.65390
H           6.63060         0.87244         1.52573
H           6.06718        -2.51009        -1.04252
H           8.74541        -0.45749         1.14059

