%nprocshared=8
%mem=1600MB
#p opt freq b3lyp/cc-pvdz

 Mol32.log

0  1
Cl         -4.97514         3.88822        -0.90621
C          -3.26634         3.46293        -0.51597
C          -2.46536         4.41392         0.07839
C          -1.16209         4.05865         0.36885
C          -0.66029         2.80831         0.08252
C          -1.48665         1.86030        -0.51578
C          -2.80281         2.19634        -0.81510
C          -0.96282         0.48525        -0.89289
N          -0.21321        -0.20583         0.17060
C          -0.82178        -0.84363         1.21155
O          -0.19315        -1.39208         2.11154
C          -2.34283        -0.90820         1.26185
N          -2.86932        -1.90768         0.36030
N          -3.67673        -1.54679        -0.67975
N          -4.08002        -2.58639        -1.28513
C          -3.55789        -3.70399        -0.65566
C          -3.71689        -5.06211        -0.93497
C          -3.06815        -5.94965        -0.11331
C          -2.27165        -5.50005         0.96546
C          -2.10607        -4.16543         1.24874
C          -2.77600        -3.26987         0.40805
C           1.22131        -0.25009         0.07121
C           1.81458        -0.87895        -1.01382
C           3.19390        -0.90268        -1.13955
C           4.01050        -0.31055        -0.17820
C           3.40116         0.30352         0.91528
C           2.02256         0.33529         1.04068
C           5.48855        -0.33954        -0.31080
C           6.12287        -0.07062        -1.52188
C           7.50597        -0.10921        -1.59675
C           8.22631        -0.41378        -0.45364
N           7.62945        -0.67438         0.70770
C           6.30240        -0.64110         0.77981
Cl         -0.08472         5.28151         1.14515
H          -2.83785         5.38931         0.30734
H           0.35751         2.57602         0.31590
H          -3.45843         1.47813        -1.26614
H          -1.78291        -0.12904        -1.22658
H          -0.28883         0.58618        -1.73013
H          -2.59822        -1.16732         2.27769
H          -2.81087         0.02827         1.01237
H          -4.32380        -5.38227        -1.75753
H          -3.15931        -7.00371        -0.28578
H          -1.77784        -6.22825         1.57887
H          -1.48596        -3.82755         2.05380
H           1.20276        -1.36629        -1.74829
H           3.63568        -1.41193        -1.97391
H           4.00499         0.77648         1.66474
H           1.57231         0.79760         1.89539
H           5.54272         0.18319        -2.38789
H           8.01326         0.10029        -2.51703
H           9.29592        -0.45142        -0.46018
H           5.87542        -0.87908         1.73259

