%nprocshared=8
%mem=1600MB
#p opt freq b3lyp/cc-pvdz

 Mol37.log

0  1
C          -4.47287         0.22711         0.31093
C          -5.11360         1.28704        -0.31955
C          -5.14236        -0.96463         0.60878
C          -6.46065         1.21728        -0.67679
C          -6.46977        -1.02093         0.25797
C          -7.12893         0.05669        -0.37723
N          -3.19643         0.67690         0.50607
N          -4.19401         2.31071        -0.47681
N          -3.08182         1.94380         0.01133
C          -2.06982         0.06961         1.17714
C          -1.49013        -1.06031         0.34012
N          -0.31541        -0.88139        -0.30723
O          -2.12857        -2.11370         0.26259
C           0.16494        -1.95504        -1.20356
C           3.35307        -3.72406        -0.18433
C           2.90449        -4.70576         0.67169
C           2.49055        -2.83426        -0.79382
C           1.54029        -4.79326         0.92025
C           1.12561        -2.92007        -0.54158
C           0.65663        -3.91127         0.31967
Cl          5.12833        -3.59402        -0.52418
C           2.34376         1.43643         0.86748
C           2.16738         2.53576         0.02667
C           1.52085         0.32612         0.77261
C           1.14305         2.48299        -0.91960
C           0.50853         0.28711        -0.17705
C           0.32689         1.36985        -1.02639
C           3.03123         3.71883         0.13119
C           3.62713         4.23796         1.25270
C           3.43920         4.59131        -0.91674
N           4.32263         5.32650         0.86096
N           4.21471         5.54831        -0.46619
H          -4.63454        -1.79673         1.04852
H          -6.93835         2.04400        -1.16255
H          -7.02538        -1.91557         0.46220
H          -8.16552        -0.04587        -0.63107
H          -1.36553         0.85502         1.37885
H          -2.40093        -0.36255         2.11064
H          -0.70254        -2.48511        -1.56182
H           0.64279        -1.47395        -2.04446
H           3.59465        -5.38504         1.12827
H           2.87747        -2.08508        -1.45504
H           1.17172        -5.55548         1.57868
H          -0.39566        -3.98421         0.51077
H           3.14153         1.43714         1.58435
H           1.67257        -0.51494         1.42014
H           0.96551         3.32451        -1.55947
H          -0.46627         1.35128        -1.74727
H           3.58644         3.92656         2.27116
H           3.20519         4.53059        -1.95447
H           4.86318         5.94265         1.41271

