%nprocshared=8
%mem=1600MB
#p opt freq b3lyp/cc-pvdz

 Mol40.log

0  1
Cl         -3.30795         5.33690        -0.37729
C          -2.10510         4.10923         0.18989
C          -1.79127         4.04442         1.53037
C          -0.86846         3.09402         1.94554
C          -0.27770         2.23410         1.03211
C          -0.60657         2.30890        -0.31783
C          -1.53411         3.25913        -0.73520
C           0.04663         1.41651        -1.35703
N           0.36580         0.05364        -0.89815
C          -0.62036        -0.88432        -0.70710
O          -0.41182        -1.98052        -0.20924
C          -2.02895        -0.50557        -1.14731
N          -2.95125        -1.58240        -0.96630
N          -3.27818        -2.37622        -2.02552
N          -4.06654        -3.29125        -1.64088
C          -4.29211        -3.14712        -0.28084
C          -5.07987        -3.89457         0.59356
C          -5.10773        -3.49968         1.90862
C          -4.36297        -2.38291         2.34963
C          -3.58228        -1.64209         1.49467
C          -3.56405        -2.04872         0.15808
C           1.72944        -0.23282        -0.60962
C           2.28582        -1.51004        -0.68449
C           3.63506        -1.64741        -0.42890
C           4.42387        -0.54407        -0.09446
C           3.77413         0.67985        -0.05054
N           2.47465         0.81671        -0.30363
C           5.85682        -0.66117         0.19254
C           6.51541        -1.69404         0.81023
N           7.82234        -1.35743         0.85230
N           8.05535        -0.15256         0.29177
C           6.88264         0.27843        -0.10812
H          -2.25081         4.71256         2.22911
H          -0.60693         3.03099         2.98371
H           0.44803         1.52001         1.36187
H          -1.80929         3.33864        -1.76865
H          -0.58353         1.35776        -2.23407
H           0.97708         1.86268        -1.66286
H          -2.37303         0.36283        -0.60413
H          -2.03354        -0.26557        -2.20021
H          -5.63460        -4.73973         0.23916
H          -5.69838        -4.04307         2.61934
H          -4.40750        -2.11073         3.38636
H          -3.01048        -0.80534         1.84268
H           1.68789        -2.35876        -0.92175
H           4.08300        -2.61854        -0.51045
H           4.29704         1.57794         0.20761
H           6.14933        -2.60551         1.22428
H           6.79302         1.21657        -0.60566
H           8.57748        -1.86966         1.23150

